*SPEF "ieee 1481-1999"
*DESIGN "mux_example"
*DATE "11:11:11 Fri 11 11, 1111"
*VENDOR "OpenRCX"
*PROGRAM "Parallel Extraction"
*VERSION "1.0"
*DESIGN_FLOW "NAME_SCOPE LOCAL" "PIN_CAP NONE"
*DIVIDER /
*DELIMITER :
*BUS_DELIMITER []
*T_UNIT 1 NS
*C_UNIT 1 PF
*R_UNIT 1 OHM
*L_UNIT 1 HENRY

*NAME_MAP
*1 io_in[0]
*2 io_in[10]
*3 io_in[11]
*4 io_in[12]
*5 io_in[13]
*6 io_in[14]
*7 io_in[15]
*8 io_in[16]
*9 io_in[17]
*10 io_in[18]
*11 io_in[19]
*12 io_in[1]
*13 io_in[20]
*14 io_in[21]
*15 io_in[22]
*16 io_in[23]
*17 io_in[24]
*18 io_in[25]
*19 io_in[26]
*20 io_in[27]
*21 io_in[28]
*22 io_in[29]
*23 io_in[2]
*24 io_in[30]
*25 io_in[31]
*26 io_in[32]
*27 io_in[33]
*28 io_in[34]
*29 io_in[35]
*30 io_in[36]
*31 io_in[37]
*32 io_in[3]
*33 io_in[4]
*34 io_in[5]
*35 io_in[6]
*36 io_in[7]
*37 io_in[8]
*38 io_in[9]
*39 io_out[0]
*40 net31
*41 net32
*42 net33
*43 net34
*44 net35
*45 net36
*46 net37
*47 net38
*48 net39
*49 net40
*50 net22
*51 net41
*52 net42
*53 net43
*54 net44
*55 net45
*56 net46
*57 net47
*58 net48
*59 net49
*60 net50
*61 net23
*62 net51
*63 net52
*64 net53
*65 net54
*66 net55
*67 net56
*68 net57
*69 net58
*70 net24
*71 net25
*72 net26
*73 net27
*74 net28
*75 net29
*76 net30
*79 wbs_sel_i[0]
*80 wbs_sel_i[1]
*81 wbs_sel_i[2]
*82 wbs_sel_i[3]
*83 _00_
*84 _01_
*85 _02_
*86 _03_
*87 _04_
*88 _05_
*89 _06_
*90 _07_
*91 _08_
*92 _09_
*93 net1
*94 net10
*95 net11
*96 net12
*97 net13
*98 net14
*99 net15
*100 net16
*101 net17
*102 net18
*103 net19
*104 net2
*105 net20
*106 net21
*107 net3
*108 net4
*109 net5
*110 net6
*111 net7
*112 net8
*113 net9
*114 ANTENNA__10__I0
*115 ANTENNA__10__I1
*116 ANTENNA__10__I2
*117 ANTENNA__10__I3
*118 ANTENNA__10__S0
*119 ANTENNA__10__S1
*120 ANTENNA__11__A1
*121 ANTENNA__12__I
*122 ANTENNA__13__I0
*123 ANTENNA__13__I1
*124 ANTENNA__13__I2
*125 ANTENNA__13__I3
*126 ANTENNA__13__S0
*127 ANTENNA__13__S1
*128 ANTENNA__14__I
*129 ANTENNA__16__I0
*130 ANTENNA__16__I1
*131 ANTENNA__16__I2
*132 ANTENNA__16__I3
*133 ANTENNA__16__S0
*134 ANTENNA__16__S1
*135 ANTENNA__17__A1
*136 ANTENNA__18__I0
*137 ANTENNA__18__I1
*138 ANTENNA__18__I2
*139 ANTENNA__18__I3
*140 ANTENNA__18__S0
*141 ANTENNA__18__S1
*142 ANTENNA__19__B
*143 ANTENNA_input10_I
*144 ANTENNA_input11_I
*145 ANTENNA_input12_I
*146 ANTENNA_input13_I
*147 ANTENNA_input14_I
*148 ANTENNA_input15_I
*149 ANTENNA_input16_I
*150 ANTENNA_input17_I
*151 ANTENNA_input18_I
*152 ANTENNA_input19_I
*153 ANTENNA_input1_I
*154 ANTENNA_input20_I
*155 ANTENNA_input2_I
*156 ANTENNA_input3_I
*157 ANTENNA_input4_I
*158 ANTENNA_input5_I
*159 ANTENNA_input6_I
*160 ANTENNA_input7_I
*161 ANTENNA_input8_I
*162 ANTENNA_input9_I
*163 ANTENNA_output21_I
*164 FILLER_0_1005
*165 FILLER_0_1013
*166 FILLER_0_1017
*167 FILLER_0_104
*168 FILLER_0_1049
*169 FILLER_0_1052
*170 FILLER_0_1055
*171 FILLER_0_107
*172 FILLER_0_1073
*173 FILLER_0_1081
*174 FILLER_0_1087
*175 FILLER_0_1119
*176 FILLER_0_1122
*177 FILLER_0_1154
*178 FILLER_0_1157
*179 FILLER_0_1189
*180 FILLER_0_1192
*181 FILLER_0_1224
*182 FILLER_0_1227
*183 FILLER_0_1259
*184 FILLER_0_1262
*185 FILLER_0_1267
*186 FILLER_0_1283
*187 FILLER_0_1291
*188 FILLER_0_1297
*189 FILLER_0_1329
*190 FILLER_0_1332
*191 FILLER_0_1364
*192 FILLER_0_1367
*193 FILLER_0_1383
*194 FILLER_0_139
*195 FILLER_0_1391
*196 FILLER_0_1397
*197 FILLER_0_1399
*198 FILLER_0_1402
*199 FILLER_0_142
*200 FILLER_0_1434
*201 FILLER_0_1437
*202 FILLER_0_1469
*203 FILLER_0_1472
*204 FILLER_0_1475
*205 FILLER_0_1491
*206 FILLER_0_1499
*207 FILLER_0_1503
*208 FILLER_0_1507
*209 FILLER_0_1539
*210 FILLER_0_1542
*211 FILLER_0_1558
*212 FILLER_0_1566
*213 FILLER_0_1574
*214 FILLER_0_1577
*215 FILLER_0_174
*216 FILLER_0_177
*217 FILLER_0_185
*218 FILLER_0_191
*219 FILLER_0_2
*220 FILLER_0_207
*221 FILLER_0_209
*222 FILLER_0_212
*223 FILLER_0_23
*224 FILLER_0_244
*225 FILLER_0_247
*226 FILLER_0_251
*227 FILLER_0_269
*228 FILLER_0_277
*229 FILLER_0_279
*230 FILLER_0_282
*231 FILLER_0_298
*232 FILLER_0_306
*233 FILLER_0_31
*234 FILLER_0_310
*235 FILLER_0_314
*236 FILLER_0_317
*237 FILLER_0_335
*238 FILLER_0_343
*239 FILLER_0_347
*240 FILLER_0_349
*241 FILLER_0_352
*242 FILLER_0_37
*243 FILLER_0_384
*244 FILLER_0_387
*245 FILLER_0_395
*246 FILLER_0_411
*247 FILLER_0_419
*248 FILLER_0_422
*249 FILLER_0_438
*250 FILLER_0_446
*251 FILLER_0_450
*252 FILLER_0_454
*253 FILLER_0_457
*254 FILLER_0_474
*255 FILLER_0_492
*256 FILLER_0_524
*257 FILLER_0_527
*258 FILLER_0_53
*259 FILLER_0_559
*260 FILLER_0_562
*261 FILLER_0_578
*262 FILLER_0_586
*263 FILLER_0_588
*264 FILLER_0_59
*265 FILLER_0_593
*266 FILLER_0_597
*267 FILLER_0_629
*268 FILLER_0_632
*269 FILLER_0_648
*270 FILLER_0_652
*271 FILLER_0_654
*272 FILLER_0_659
*273 FILLER_0_663
*274 FILLER_0_667
*275 FILLER_0_67
*276 FILLER_0_69
*277 FILLER_0_699
*278 FILLER_0_7
*279 FILLER_0_702
*280 FILLER_0_718
*281 FILLER_0_72
*282 FILLER_0_720
*283 FILLER_0_725
*284 FILLER_0_733
*285 FILLER_0_737
*286 FILLER_0_769
*287 FILLER_0_772
*288 FILLER_0_788
*289 FILLER_0_792
*290 FILLER_0_797
*291 FILLER_0_807
*292 FILLER_0_839
*293 FILLER_0_842
*294 FILLER_0_874
*295 FILLER_0_877
*296 FILLER_0_909
*297 FILLER_0_912
*298 FILLER_0_920
*299 FILLER_0_923
*300 FILLER_0_933
*301 FILLER_0_941
*302 FILLER_0_947
*303 FILLER_0_979
*304 FILLER_0_982
*305 FILLER_0_986
*306 FILLER_0_989
*307 FILLER_100_101
*308 FILLER_100_1024
*309 FILLER_100_1028
*310 FILLER_100_1031
*311 FILLER_100_105
*312 FILLER_100_108
*313 FILLER_100_1095
*314 FILLER_100_1099
*315 FILLER_100_1102
*316 FILLER_100_1166
*317 FILLER_100_1170
*318 FILLER_100_1173
*319 FILLER_100_1237
*320 FILLER_100_1241
*321 FILLER_100_1244
*322 FILLER_100_1308
*323 FILLER_100_1312
*324 FILLER_100_1315
*325 FILLER_100_1379
*326 FILLER_100_1383
*327 FILLER_100_1386
*328 FILLER_100_1450
*329 FILLER_100_1454
*330 FILLER_100_1457
*331 FILLER_100_1521
*332 FILLER_100_1525
*333 FILLER_100_1528
*334 FILLER_100_1560
*335 FILLER_100_1576
*336 FILLER_100_1580
*337 FILLER_100_172
*338 FILLER_100_176
*339 FILLER_100_179
*340 FILLER_100_2
*341 FILLER_100_21
*342 FILLER_100_243
*343 FILLER_100_247
*344 FILLER_100_250
*345 FILLER_100_29
*346 FILLER_100_314
*347 FILLER_100_318
*348 FILLER_100_321
*349 FILLER_100_33
*350 FILLER_100_37
*351 FILLER_100_385
*352 FILLER_100_389
*353 FILLER_100_392
*354 FILLER_100_456
*355 FILLER_100_460
*356 FILLER_100_463
*357 FILLER_100_5
*358 FILLER_100_527
*359 FILLER_100_531
*360 FILLER_100_534
*361 FILLER_100_598
*362 FILLER_100_602
*363 FILLER_100_605
*364 FILLER_100_669
*365 FILLER_100_673
*366 FILLER_100_676
*367 FILLER_100_740
*368 FILLER_100_744
*369 FILLER_100_747
*370 FILLER_100_811
*371 FILLER_100_815
*372 FILLER_100_818
*373 FILLER_100_882
*374 FILLER_100_886
*375 FILLER_100_889
*376 FILLER_100_953
*377 FILLER_100_957
*378 FILLER_100_960
*379 FILLER_101_1060
*380 FILLER_101_1064
*381 FILLER_101_1067
*382 FILLER_101_1131
*383 FILLER_101_1135
*384 FILLER_101_1138
*385 FILLER_101_1202
*386 FILLER_101_1206
*387 FILLER_101_1209
*388 FILLER_101_1273
*389 FILLER_101_1277
*390 FILLER_101_1280
*391 FILLER_101_1344
*392 FILLER_101_1348
*393 FILLER_101_1351
*394 FILLER_101_137
*395 FILLER_101_141
*396 FILLER_101_1415
*397 FILLER_101_1419
*398 FILLER_101_1422
*399 FILLER_101_144
*400 FILLER_101_1486
*401 FILLER_101_1490
*402 FILLER_101_1493
*403 FILLER_101_1557
*404 FILLER_101_1561
*405 FILLER_101_1564
*406 FILLER_101_1580
*407 FILLER_101_19
*408 FILLER_101_2
*409 FILLER_101_208
*410 FILLER_101_212
*411 FILLER_101_215
*412 FILLER_101_279
*413 FILLER_101_283
*414 FILLER_101_286
*415 FILLER_101_350
*416 FILLER_101_354
*417 FILLER_101_357
*418 FILLER_101_421
*419 FILLER_101_425
*420 FILLER_101_428
*421 FILLER_101_492
*422 FILLER_101_496
*423 FILLER_101_499
*424 FILLER_101_51
*425 FILLER_101_563
*426 FILLER_101_567
*427 FILLER_101_570
*428 FILLER_101_634
*429 FILLER_101_638
*430 FILLER_101_641
*431 FILLER_101_67
*432 FILLER_101_705
*433 FILLER_101_709
*434 FILLER_101_712
*435 FILLER_101_73
*436 FILLER_101_776
*437 FILLER_101_780
*438 FILLER_101_783
*439 FILLER_101_847
*440 FILLER_101_851
*441 FILLER_101_854
*442 FILLER_101_918
*443 FILLER_101_922
*444 FILLER_101_925
*445 FILLER_101_989
*446 FILLER_101_993
*447 FILLER_101_996
*448 FILLER_102_101
*449 FILLER_102_1024
*450 FILLER_102_1028
*451 FILLER_102_1031
*452 FILLER_102_105
*453 FILLER_102_108
*454 FILLER_102_1095
*455 FILLER_102_1099
*456 FILLER_102_1102
*457 FILLER_102_1166
*458 FILLER_102_1170
*459 FILLER_102_1173
*460 FILLER_102_1237
*461 FILLER_102_1241
*462 FILLER_102_1244
*463 FILLER_102_1308
*464 FILLER_102_1312
*465 FILLER_102_1315
*466 FILLER_102_1379
*467 FILLER_102_1383
*468 FILLER_102_1386
*469 FILLER_102_1450
*470 FILLER_102_1454
*471 FILLER_102_1457
*472 FILLER_102_1521
*473 FILLER_102_1525
*474 FILLER_102_1528
*475 FILLER_102_1560
*476 FILLER_102_1576
*477 FILLER_102_1580
*478 FILLER_102_172
*479 FILLER_102_176
*480 FILLER_102_179
*481 FILLER_102_2
*482 FILLER_102_243
*483 FILLER_102_247
*484 FILLER_102_250
*485 FILLER_102_314
*486 FILLER_102_318
*487 FILLER_102_321
*488 FILLER_102_34
*489 FILLER_102_37
*490 FILLER_102_385
*491 FILLER_102_389
*492 FILLER_102_392
*493 FILLER_102_456
*494 FILLER_102_460
*495 FILLER_102_463
*496 FILLER_102_527
*497 FILLER_102_531
*498 FILLER_102_534
*499 FILLER_102_598
*500 FILLER_102_602
*501 FILLER_102_605
*502 FILLER_102_669
*503 FILLER_102_673
*504 FILLER_102_676
*505 FILLER_102_740
*506 FILLER_102_744
*507 FILLER_102_747
*508 FILLER_102_811
*509 FILLER_102_815
*510 FILLER_102_818
*511 FILLER_102_882
*512 FILLER_102_886
*513 FILLER_102_889
*514 FILLER_102_953
*515 FILLER_102_957
*516 FILLER_102_960
*517 FILLER_103_1060
*518 FILLER_103_1064
*519 FILLER_103_1067
*520 FILLER_103_1131
*521 FILLER_103_1135
*522 FILLER_103_1138
*523 FILLER_103_1202
*524 FILLER_103_1206
*525 FILLER_103_1209
*526 FILLER_103_1273
*527 FILLER_103_1277
*528 FILLER_103_1280
*529 FILLER_103_1344
*530 FILLER_103_1348
*531 FILLER_103_1351
*532 FILLER_103_137
*533 FILLER_103_141
*534 FILLER_103_1415
*535 FILLER_103_1419
*536 FILLER_103_1422
*537 FILLER_103_144
*538 FILLER_103_1486
*539 FILLER_103_1490
*540 FILLER_103_1493
*541 FILLER_103_1557
*542 FILLER_103_1561
*543 FILLER_103_1564
*544 FILLER_103_1580
*545 FILLER_103_2
*546 FILLER_103_208
*547 FILLER_103_212
*548 FILLER_103_215
*549 FILLER_103_279
*550 FILLER_103_283
*551 FILLER_103_286
*552 FILLER_103_350
*553 FILLER_103_354
*554 FILLER_103_357
*555 FILLER_103_421
*556 FILLER_103_425
*557 FILLER_103_428
*558 FILLER_103_492
*559 FILLER_103_496
*560 FILLER_103_499
*561 FILLER_103_563
*562 FILLER_103_567
*563 FILLER_103_570
*564 FILLER_103_634
*565 FILLER_103_638
*566 FILLER_103_641
*567 FILLER_103_66
*568 FILLER_103_70
*569 FILLER_103_705
*570 FILLER_103_709
*571 FILLER_103_712
*572 FILLER_103_73
*573 FILLER_103_776
*574 FILLER_103_780
*575 FILLER_103_783
*576 FILLER_103_847
*577 FILLER_103_851
*578 FILLER_103_854
*579 FILLER_103_918
*580 FILLER_103_922
*581 FILLER_103_925
*582 FILLER_103_989
*583 FILLER_103_993
*584 FILLER_103_996
*585 FILLER_104_101
*586 FILLER_104_1024
*587 FILLER_104_1028
*588 FILLER_104_1031
*589 FILLER_104_105
*590 FILLER_104_108
*591 FILLER_104_1095
*592 FILLER_104_1099
*593 FILLER_104_1102
*594 FILLER_104_1166
*595 FILLER_104_1170
*596 FILLER_104_1173
*597 FILLER_104_1237
*598 FILLER_104_1241
*599 FILLER_104_1244
*600 FILLER_104_1308
*601 FILLER_104_1312
*602 FILLER_104_1315
*603 FILLER_104_1379
*604 FILLER_104_1383
*605 FILLER_104_1386
*606 FILLER_104_1450
*607 FILLER_104_1454
*608 FILLER_104_1457
*609 FILLER_104_1521
*610 FILLER_104_1525
*611 FILLER_104_1528
*612 FILLER_104_1560
*613 FILLER_104_1576
*614 FILLER_104_1580
*615 FILLER_104_172
*616 FILLER_104_176
*617 FILLER_104_179
*618 FILLER_104_2
*619 FILLER_104_243
*620 FILLER_104_247
*621 FILLER_104_250
*622 FILLER_104_314
*623 FILLER_104_318
*624 FILLER_104_321
*625 FILLER_104_34
*626 FILLER_104_37
*627 FILLER_104_385
*628 FILLER_104_389
*629 FILLER_104_392
*630 FILLER_104_456
*631 FILLER_104_460
*632 FILLER_104_463
*633 FILLER_104_527
*634 FILLER_104_531
*635 FILLER_104_534
*636 FILLER_104_598
*637 FILLER_104_602
*638 FILLER_104_605
*639 FILLER_104_669
*640 FILLER_104_673
*641 FILLER_104_676
*642 FILLER_104_740
*643 FILLER_104_744
*644 FILLER_104_747
*645 FILLER_104_811
*646 FILLER_104_815
*647 FILLER_104_818
*648 FILLER_104_882
*649 FILLER_104_886
*650 FILLER_104_889
*651 FILLER_104_953
*652 FILLER_104_957
*653 FILLER_104_960
*654 FILLER_105_1060
*655 FILLER_105_1064
*656 FILLER_105_1067
*657 FILLER_105_1131
*658 FILLER_105_1135
*659 FILLER_105_1138
*660 FILLER_105_1202
*661 FILLER_105_1206
*662 FILLER_105_1209
*663 FILLER_105_1273
*664 FILLER_105_1277
*665 FILLER_105_1280
*666 FILLER_105_1344
*667 FILLER_105_1348
*668 FILLER_105_1351
*669 FILLER_105_137
*670 FILLER_105_141
*671 FILLER_105_1415
*672 FILLER_105_1419
*673 FILLER_105_1422
*674 FILLER_105_144
*675 FILLER_105_1486
*676 FILLER_105_1490
*677 FILLER_105_1493
*678 FILLER_105_1557
*679 FILLER_105_1561
*680 FILLER_105_1564
*681 FILLER_105_1580
*682 FILLER_105_2
*683 FILLER_105_208
*684 FILLER_105_212
*685 FILLER_105_215
*686 FILLER_105_279
*687 FILLER_105_283
*688 FILLER_105_286
*689 FILLER_105_350
*690 FILLER_105_354
*691 FILLER_105_357
*692 FILLER_105_421
*693 FILLER_105_425
*694 FILLER_105_428
*695 FILLER_105_492
*696 FILLER_105_496
*697 FILLER_105_499
*698 FILLER_105_563
*699 FILLER_105_567
*700 FILLER_105_570
*701 FILLER_105_634
*702 FILLER_105_638
*703 FILLER_105_641
*704 FILLER_105_66
*705 FILLER_105_70
*706 FILLER_105_705
*707 FILLER_105_709
*708 FILLER_105_712
*709 FILLER_105_73
*710 FILLER_105_776
*711 FILLER_105_780
*712 FILLER_105_783
*713 FILLER_105_847
*714 FILLER_105_851
*715 FILLER_105_854
*716 FILLER_105_918
*717 FILLER_105_922
*718 FILLER_105_925
*719 FILLER_105_989
*720 FILLER_105_993
*721 FILLER_105_996
*722 FILLER_106_101
*723 FILLER_106_1024
*724 FILLER_106_1028
*725 FILLER_106_1031
*726 FILLER_106_105
*727 FILLER_106_108
*728 FILLER_106_1095
*729 FILLER_106_1099
*730 FILLER_106_1102
*731 FILLER_106_1166
*732 FILLER_106_1170
*733 FILLER_106_1173
*734 FILLER_106_1237
*735 FILLER_106_1241
*736 FILLER_106_1244
*737 FILLER_106_1308
*738 FILLER_106_1312
*739 FILLER_106_1315
*740 FILLER_106_1379
*741 FILLER_106_1383
*742 FILLER_106_1386
*743 FILLER_106_1450
*744 FILLER_106_1454
*745 FILLER_106_1457
*746 FILLER_106_1521
*747 FILLER_106_1525
*748 FILLER_106_1528
*749 FILLER_106_1560
*750 FILLER_106_1576
*751 FILLER_106_1580
*752 FILLER_106_172
*753 FILLER_106_176
*754 FILLER_106_179
*755 FILLER_106_2
*756 FILLER_106_243
*757 FILLER_106_247
*758 FILLER_106_250
*759 FILLER_106_314
*760 FILLER_106_318
*761 FILLER_106_321
*762 FILLER_106_34
*763 FILLER_106_37
*764 FILLER_106_385
*765 FILLER_106_389
*766 FILLER_106_392
*767 FILLER_106_456
*768 FILLER_106_460
*769 FILLER_106_463
*770 FILLER_106_527
*771 FILLER_106_531
*772 FILLER_106_534
*773 FILLER_106_598
*774 FILLER_106_602
*775 FILLER_106_605
*776 FILLER_106_669
*777 FILLER_106_673
*778 FILLER_106_676
*779 FILLER_106_740
*780 FILLER_106_744
*781 FILLER_106_747
*782 FILLER_106_811
*783 FILLER_106_815
*784 FILLER_106_818
*785 FILLER_106_882
*786 FILLER_106_886
*787 FILLER_106_889
*788 FILLER_106_953
*789 FILLER_106_957
*790 FILLER_106_960
*791 FILLER_107_1060
*792 FILLER_107_1064
*793 FILLER_107_1067
*794 FILLER_107_1131
*795 FILLER_107_1135
*796 FILLER_107_1138
*797 FILLER_107_1202
*798 FILLER_107_1206
*799 FILLER_107_1209
*800 FILLER_107_1273
*801 FILLER_107_1277
*802 FILLER_107_1280
*803 FILLER_107_1344
*804 FILLER_107_1348
*805 FILLER_107_1351
*806 FILLER_107_137
*807 FILLER_107_141
*808 FILLER_107_1415
*809 FILLER_107_1419
*810 FILLER_107_1422
*811 FILLER_107_144
*812 FILLER_107_1486
*813 FILLER_107_1490
*814 FILLER_107_1493
*815 FILLER_107_1557
*816 FILLER_107_1561
*817 FILLER_107_1564
*818 FILLER_107_1580
*819 FILLER_107_2
*820 FILLER_107_208
*821 FILLER_107_212
*822 FILLER_107_215
*823 FILLER_107_279
*824 FILLER_107_283
*825 FILLER_107_286
*826 FILLER_107_350
*827 FILLER_107_354
*828 FILLER_107_357
*829 FILLER_107_421
*830 FILLER_107_425
*831 FILLER_107_428
*832 FILLER_107_492
*833 FILLER_107_496
*834 FILLER_107_499
*835 FILLER_107_563
*836 FILLER_107_567
*837 FILLER_107_570
*838 FILLER_107_634
*839 FILLER_107_638
*840 FILLER_107_641
*841 FILLER_107_66
*842 FILLER_107_70
*843 FILLER_107_705
*844 FILLER_107_709
*845 FILLER_107_712
*846 FILLER_107_73
*847 FILLER_107_776
*848 FILLER_107_780
*849 FILLER_107_783
*850 FILLER_107_847
*851 FILLER_107_851
*852 FILLER_107_854
*853 FILLER_107_918
*854 FILLER_107_922
*855 FILLER_107_925
*856 FILLER_107_989
*857 FILLER_107_993
*858 FILLER_107_996
*859 FILLER_108_101
*860 FILLER_108_1024
*861 FILLER_108_1028
*862 FILLER_108_1031
*863 FILLER_108_105
*864 FILLER_108_108
*865 FILLER_108_1095
*866 FILLER_108_1099
*867 FILLER_108_1102
*868 FILLER_108_1166
*869 FILLER_108_1170
*870 FILLER_108_1173
*871 FILLER_108_1237
*872 FILLER_108_1241
*873 FILLER_108_1244
*874 FILLER_108_1308
*875 FILLER_108_1312
*876 FILLER_108_1315
*877 FILLER_108_1379
*878 FILLER_108_1383
*879 FILLER_108_1386
*880 FILLER_108_1450
*881 FILLER_108_1454
*882 FILLER_108_1457
*883 FILLER_108_1521
*884 FILLER_108_1525
*885 FILLER_108_1528
*886 FILLER_108_1560
*887 FILLER_108_1576
*888 FILLER_108_1580
*889 FILLER_108_172
*890 FILLER_108_176
*891 FILLER_108_179
*892 FILLER_108_2
*893 FILLER_108_243
*894 FILLER_108_247
*895 FILLER_108_250
*896 FILLER_108_314
*897 FILLER_108_318
*898 FILLER_108_321
*899 FILLER_108_34
*900 FILLER_108_37
*901 FILLER_108_385
*902 FILLER_108_389
*903 FILLER_108_392
*904 FILLER_108_456
*905 FILLER_108_460
*906 FILLER_108_463
*907 FILLER_108_527
*908 FILLER_108_531
*909 FILLER_108_534
*910 FILLER_108_598
*911 FILLER_108_602
*912 FILLER_108_605
*913 FILLER_108_669
*914 FILLER_108_673
*915 FILLER_108_676
*916 FILLER_108_740
*917 FILLER_108_744
*918 FILLER_108_747
*919 FILLER_108_811
*920 FILLER_108_815
*921 FILLER_108_818
*922 FILLER_108_882
*923 FILLER_108_886
*924 FILLER_108_889
*925 FILLER_108_953
*926 FILLER_108_957
*927 FILLER_108_960
*928 FILLER_109_1060
*929 FILLER_109_1064
*930 FILLER_109_1067
*931 FILLER_109_1131
*932 FILLER_109_1135
*933 FILLER_109_1138
*934 FILLER_109_1202
*935 FILLER_109_1206
*936 FILLER_109_1209
*937 FILLER_109_1273
*938 FILLER_109_1277
*939 FILLER_109_1280
*940 FILLER_109_1344
*941 FILLER_109_1348
*942 FILLER_109_1351
*943 FILLER_109_137
*944 FILLER_109_141
*945 FILLER_109_1415
*946 FILLER_109_1419
*947 FILLER_109_1422
*948 FILLER_109_144
*949 FILLER_109_1486
*950 FILLER_109_1490
*951 FILLER_109_1493
*952 FILLER_109_1557
*953 FILLER_109_1561
*954 FILLER_109_1564
*955 FILLER_109_1580
*956 FILLER_109_2
*957 FILLER_109_208
*958 FILLER_109_212
*959 FILLER_109_215
*960 FILLER_109_279
*961 FILLER_109_283
*962 FILLER_109_286
*963 FILLER_109_350
*964 FILLER_109_354
*965 FILLER_109_357
*966 FILLER_109_421
*967 FILLER_109_425
*968 FILLER_109_428
*969 FILLER_109_492
*970 FILLER_109_496
*971 FILLER_109_499
*972 FILLER_109_563
*973 FILLER_109_567
*974 FILLER_109_570
*975 FILLER_109_634
*976 FILLER_109_638
*977 FILLER_109_641
*978 FILLER_109_66
*979 FILLER_109_70
*980 FILLER_109_705
*981 FILLER_109_709
*982 FILLER_109_712
*983 FILLER_109_73
*984 FILLER_109_776
*985 FILLER_109_780
*986 FILLER_109_783
*987 FILLER_109_847
*988 FILLER_109_851
*989 FILLER_109_854
*990 FILLER_109_918
*991 FILLER_109_922
*992 FILLER_109_925
*993 FILLER_109_989
*994 FILLER_109_993
*995 FILLER_109_996
*996 FILLER_10_101
*997 FILLER_10_1024
*998 FILLER_10_1028
*999 FILLER_10_1031
*1000 FILLER_10_105
*1001 FILLER_10_108
*1002 FILLER_10_1095
*1003 FILLER_10_1099
*1004 FILLER_10_1102
*1005 FILLER_10_1166
*1006 FILLER_10_1170
*1007 FILLER_10_1173
*1008 FILLER_10_1237
*1009 FILLER_10_1241
*1010 FILLER_10_1244
*1011 FILLER_10_1308
*1012 FILLER_10_1312
*1013 FILLER_10_1315
*1014 FILLER_10_1379
*1015 FILLER_10_1383
*1016 FILLER_10_1386
*1017 FILLER_10_1450
*1018 FILLER_10_1454
*1019 FILLER_10_1457
*1020 FILLER_10_1521
*1021 FILLER_10_1525
*1022 FILLER_10_1528
*1023 FILLER_10_1560
*1024 FILLER_10_1576
*1025 FILLER_10_1580
*1026 FILLER_10_172
*1027 FILLER_10_176
*1028 FILLER_10_179
*1029 FILLER_10_2
*1030 FILLER_10_243
*1031 FILLER_10_247
*1032 FILLER_10_250
*1033 FILLER_10_314
*1034 FILLER_10_318
*1035 FILLER_10_321
*1036 FILLER_10_34
*1037 FILLER_10_37
*1038 FILLER_10_385
*1039 FILLER_10_389
*1040 FILLER_10_392
*1041 FILLER_10_456
*1042 FILLER_10_460
*1043 FILLER_10_463
*1044 FILLER_10_527
*1045 FILLER_10_531
*1046 FILLER_10_534
*1047 FILLER_10_598
*1048 FILLER_10_602
*1049 FILLER_10_605
*1050 FILLER_10_669
*1051 FILLER_10_673
*1052 FILLER_10_676
*1053 FILLER_10_740
*1054 FILLER_10_744
*1055 FILLER_10_747
*1056 FILLER_10_811
*1057 FILLER_10_815
*1058 FILLER_10_818
*1059 FILLER_10_882
*1060 FILLER_10_886
*1061 FILLER_10_889
*1062 FILLER_10_953
*1063 FILLER_10_957
*1064 FILLER_10_960
*1065 FILLER_110_101
*1066 FILLER_110_1024
*1067 FILLER_110_1028
*1068 FILLER_110_1031
*1069 FILLER_110_105
*1070 FILLER_110_108
*1071 FILLER_110_1095
*1072 FILLER_110_1099
*1073 FILLER_110_1102
*1074 FILLER_110_1166
*1075 FILLER_110_1170
*1076 FILLER_110_1173
*1077 FILLER_110_1237
*1078 FILLER_110_1241
*1079 FILLER_110_1244
*1080 FILLER_110_1308
*1081 FILLER_110_1312
*1082 FILLER_110_1315
*1083 FILLER_110_1379
*1084 FILLER_110_1383
*1085 FILLER_110_1386
*1086 FILLER_110_1450
*1087 FILLER_110_1454
*1088 FILLER_110_1457
*1089 FILLER_110_1521
*1090 FILLER_110_1525
*1091 FILLER_110_1528
*1092 FILLER_110_1560
*1093 FILLER_110_1576
*1094 FILLER_110_1580
*1095 FILLER_110_172
*1096 FILLER_110_176
*1097 FILLER_110_179
*1098 FILLER_110_2
*1099 FILLER_110_243
*1100 FILLER_110_247
*1101 FILLER_110_250
*1102 FILLER_110_314
*1103 FILLER_110_318
*1104 FILLER_110_321
*1105 FILLER_110_34
*1106 FILLER_110_37
*1107 FILLER_110_385
*1108 FILLER_110_389
*1109 FILLER_110_392
*1110 FILLER_110_456
*1111 FILLER_110_460
*1112 FILLER_110_463
*1113 FILLER_110_527
*1114 FILLER_110_531
*1115 FILLER_110_534
*1116 FILLER_110_598
*1117 FILLER_110_602
*1118 FILLER_110_605
*1119 FILLER_110_669
*1120 FILLER_110_673
*1121 FILLER_110_676
*1122 FILLER_110_740
*1123 FILLER_110_744
*1124 FILLER_110_747
*1125 FILLER_110_811
*1126 FILLER_110_815
*1127 FILLER_110_818
*1128 FILLER_110_882
*1129 FILLER_110_886
*1130 FILLER_110_889
*1131 FILLER_110_953
*1132 FILLER_110_957
*1133 FILLER_110_960
*1134 FILLER_111_1060
*1135 FILLER_111_1064
*1136 FILLER_111_1067
*1137 FILLER_111_1131
*1138 FILLER_111_1135
*1139 FILLER_111_1138
*1140 FILLER_111_1202
*1141 FILLER_111_1206
*1142 FILLER_111_1209
*1143 FILLER_111_1273
*1144 FILLER_111_1277
*1145 FILLER_111_1280
*1146 FILLER_111_1344
*1147 FILLER_111_1348
*1148 FILLER_111_1351
*1149 FILLER_111_137
*1150 FILLER_111_141
*1151 FILLER_111_1415
*1152 FILLER_111_1419
*1153 FILLER_111_1422
*1154 FILLER_111_144
*1155 FILLER_111_1486
*1156 FILLER_111_1490
*1157 FILLER_111_1493
*1158 FILLER_111_1557
*1159 FILLER_111_1561
*1160 FILLER_111_1564
*1161 FILLER_111_1580
*1162 FILLER_111_2
*1163 FILLER_111_208
*1164 FILLER_111_212
*1165 FILLER_111_215
*1166 FILLER_111_279
*1167 FILLER_111_283
*1168 FILLER_111_286
*1169 FILLER_111_350
*1170 FILLER_111_354
*1171 FILLER_111_357
*1172 FILLER_111_421
*1173 FILLER_111_425
*1174 FILLER_111_428
*1175 FILLER_111_492
*1176 FILLER_111_496
*1177 FILLER_111_499
*1178 FILLER_111_563
*1179 FILLER_111_567
*1180 FILLER_111_570
*1181 FILLER_111_634
*1182 FILLER_111_638
*1183 FILLER_111_641
*1184 FILLER_111_66
*1185 FILLER_111_70
*1186 FILLER_111_705
*1187 FILLER_111_709
*1188 FILLER_111_712
*1189 FILLER_111_73
*1190 FILLER_111_776
*1191 FILLER_111_780
*1192 FILLER_111_783
*1193 FILLER_111_847
*1194 FILLER_111_851
*1195 FILLER_111_854
*1196 FILLER_111_918
*1197 FILLER_111_922
*1198 FILLER_111_925
*1199 FILLER_111_989
*1200 FILLER_111_993
*1201 FILLER_111_996
*1202 FILLER_112_101
*1203 FILLER_112_1024
*1204 FILLER_112_1028
*1205 FILLER_112_1031
*1206 FILLER_112_105
*1207 FILLER_112_108
*1208 FILLER_112_1095
*1209 FILLER_112_1099
*1210 FILLER_112_1102
*1211 FILLER_112_1166
*1212 FILLER_112_1170
*1213 FILLER_112_1173
*1214 FILLER_112_1237
*1215 FILLER_112_1241
*1216 FILLER_112_1244
*1217 FILLER_112_1308
*1218 FILLER_112_1312
*1219 FILLER_112_1315
*1220 FILLER_112_1379
*1221 FILLER_112_1383
*1222 FILLER_112_1386
*1223 FILLER_112_1450
*1224 FILLER_112_1454
*1225 FILLER_112_1457
*1226 FILLER_112_1521
*1227 FILLER_112_1525
*1228 FILLER_112_1528
*1229 FILLER_112_1560
*1230 FILLER_112_1576
*1231 FILLER_112_1580
*1232 FILLER_112_172
*1233 FILLER_112_176
*1234 FILLER_112_179
*1235 FILLER_112_2
*1236 FILLER_112_243
*1237 FILLER_112_247
*1238 FILLER_112_250
*1239 FILLER_112_314
*1240 FILLER_112_318
*1241 FILLER_112_321
*1242 FILLER_112_34
*1243 FILLER_112_37
*1244 FILLER_112_385
*1245 FILLER_112_389
*1246 FILLER_112_392
*1247 FILLER_112_456
*1248 FILLER_112_460
*1249 FILLER_112_463
*1250 FILLER_112_527
*1251 FILLER_112_531
*1252 FILLER_112_534
*1253 FILLER_112_598
*1254 FILLER_112_602
*1255 FILLER_112_605
*1256 FILLER_112_669
*1257 FILLER_112_673
*1258 FILLER_112_676
*1259 FILLER_112_740
*1260 FILLER_112_744
*1261 FILLER_112_747
*1262 FILLER_112_811
*1263 FILLER_112_815
*1264 FILLER_112_818
*1265 FILLER_112_882
*1266 FILLER_112_886
*1267 FILLER_112_889
*1268 FILLER_112_953
*1269 FILLER_112_957
*1270 FILLER_112_960
*1271 FILLER_113_1060
*1272 FILLER_113_1064
*1273 FILLER_113_1067
*1274 FILLER_113_1131
*1275 FILLER_113_1135
*1276 FILLER_113_1138
*1277 FILLER_113_1202
*1278 FILLER_113_1206
*1279 FILLER_113_1209
*1280 FILLER_113_1273
*1281 FILLER_113_1277
*1282 FILLER_113_1280
*1283 FILLER_113_1344
*1284 FILLER_113_1348
*1285 FILLER_113_1351
*1286 FILLER_113_137
*1287 FILLER_113_141
*1288 FILLER_113_1415
*1289 FILLER_113_1419
*1290 FILLER_113_1422
*1291 FILLER_113_144
*1292 FILLER_113_1486
*1293 FILLER_113_1490
*1294 FILLER_113_1493
*1295 FILLER_113_1557
*1296 FILLER_113_1561
*1297 FILLER_113_1564
*1298 FILLER_113_1580
*1299 FILLER_113_2
*1300 FILLER_113_208
*1301 FILLER_113_212
*1302 FILLER_113_215
*1303 FILLER_113_279
*1304 FILLER_113_283
*1305 FILLER_113_286
*1306 FILLER_113_350
*1307 FILLER_113_354
*1308 FILLER_113_357
*1309 FILLER_113_421
*1310 FILLER_113_425
*1311 FILLER_113_428
*1312 FILLER_113_492
*1313 FILLER_113_496
*1314 FILLER_113_499
*1315 FILLER_113_563
*1316 FILLER_113_567
*1317 FILLER_113_570
*1318 FILLER_113_634
*1319 FILLER_113_638
*1320 FILLER_113_641
*1321 FILLER_113_66
*1322 FILLER_113_70
*1323 FILLER_113_705
*1324 FILLER_113_709
*1325 FILLER_113_712
*1326 FILLER_113_73
*1327 FILLER_113_776
*1328 FILLER_113_780
*1329 FILLER_113_783
*1330 FILLER_113_847
*1331 FILLER_113_851
*1332 FILLER_113_854
*1333 FILLER_113_918
*1334 FILLER_113_922
*1335 FILLER_113_925
*1336 FILLER_113_989
*1337 FILLER_113_993
*1338 FILLER_113_996
*1339 FILLER_114_101
*1340 FILLER_114_1024
*1341 FILLER_114_1028
*1342 FILLER_114_1031
*1343 FILLER_114_105
*1344 FILLER_114_108
*1345 FILLER_114_1095
*1346 FILLER_114_1099
*1347 FILLER_114_1102
*1348 FILLER_114_1166
*1349 FILLER_114_1170
*1350 FILLER_114_1173
*1351 FILLER_114_1237
*1352 FILLER_114_1241
*1353 FILLER_114_1244
*1354 FILLER_114_1308
*1355 FILLER_114_1312
*1356 FILLER_114_1315
*1357 FILLER_114_1379
*1358 FILLER_114_1383
*1359 FILLER_114_1386
*1360 FILLER_114_1450
*1361 FILLER_114_1454
*1362 FILLER_114_1457
*1363 FILLER_114_1521
*1364 FILLER_114_1525
*1365 FILLER_114_1528
*1366 FILLER_114_1560
*1367 FILLER_114_1576
*1368 FILLER_114_1580
*1369 FILLER_114_172
*1370 FILLER_114_176
*1371 FILLER_114_179
*1372 FILLER_114_2
*1373 FILLER_114_243
*1374 FILLER_114_247
*1375 FILLER_114_250
*1376 FILLER_114_314
*1377 FILLER_114_318
*1378 FILLER_114_321
*1379 FILLER_114_34
*1380 FILLER_114_37
*1381 FILLER_114_385
*1382 FILLER_114_389
*1383 FILLER_114_392
*1384 FILLER_114_456
*1385 FILLER_114_460
*1386 FILLER_114_463
*1387 FILLER_114_527
*1388 FILLER_114_531
*1389 FILLER_114_534
*1390 FILLER_114_598
*1391 FILLER_114_602
*1392 FILLER_114_605
*1393 FILLER_114_669
*1394 FILLER_114_673
*1395 FILLER_114_676
*1396 FILLER_114_740
*1397 FILLER_114_744
*1398 FILLER_114_747
*1399 FILLER_114_811
*1400 FILLER_114_815
*1401 FILLER_114_818
*1402 FILLER_114_882
*1403 FILLER_114_886
*1404 FILLER_114_889
*1405 FILLER_114_953
*1406 FILLER_114_957
*1407 FILLER_114_960
*1408 FILLER_115_1060
*1409 FILLER_115_1064
*1410 FILLER_115_1067
*1411 FILLER_115_1131
*1412 FILLER_115_1135
*1413 FILLER_115_1138
*1414 FILLER_115_1202
*1415 FILLER_115_1206
*1416 FILLER_115_1209
*1417 FILLER_115_1273
*1418 FILLER_115_1277
*1419 FILLER_115_1280
*1420 FILLER_115_1344
*1421 FILLER_115_1348
*1422 FILLER_115_1351
*1423 FILLER_115_137
*1424 FILLER_115_141
*1425 FILLER_115_1415
*1426 FILLER_115_1419
*1427 FILLER_115_1422
*1428 FILLER_115_144
*1429 FILLER_115_1486
*1430 FILLER_115_1490
*1431 FILLER_115_1493
*1432 FILLER_115_1557
*1433 FILLER_115_1561
*1434 FILLER_115_1564
*1435 FILLER_115_1580
*1436 FILLER_115_2
*1437 FILLER_115_208
*1438 FILLER_115_212
*1439 FILLER_115_215
*1440 FILLER_115_279
*1441 FILLER_115_283
*1442 FILLER_115_286
*1443 FILLER_115_350
*1444 FILLER_115_354
*1445 FILLER_115_357
*1446 FILLER_115_421
*1447 FILLER_115_425
*1448 FILLER_115_428
*1449 FILLER_115_492
*1450 FILLER_115_496
*1451 FILLER_115_499
*1452 FILLER_115_563
*1453 FILLER_115_567
*1454 FILLER_115_570
*1455 FILLER_115_634
*1456 FILLER_115_638
*1457 FILLER_115_641
*1458 FILLER_115_66
*1459 FILLER_115_70
*1460 FILLER_115_705
*1461 FILLER_115_709
*1462 FILLER_115_712
*1463 FILLER_115_73
*1464 FILLER_115_776
*1465 FILLER_115_780
*1466 FILLER_115_783
*1467 FILLER_115_847
*1468 FILLER_115_851
*1469 FILLER_115_854
*1470 FILLER_115_918
*1471 FILLER_115_922
*1472 FILLER_115_925
*1473 FILLER_115_989
*1474 FILLER_115_993
*1475 FILLER_115_996
*1476 FILLER_116_101
*1477 FILLER_116_1024
*1478 FILLER_116_1028
*1479 FILLER_116_1031
*1480 FILLER_116_105
*1481 FILLER_116_108
*1482 FILLER_116_1095
*1483 FILLER_116_1099
*1484 FILLER_116_1102
*1485 FILLER_116_1166
*1486 FILLER_116_1170
*1487 FILLER_116_1173
*1488 FILLER_116_1237
*1489 FILLER_116_1241
*1490 FILLER_116_1244
*1491 FILLER_116_1308
*1492 FILLER_116_1312
*1493 FILLER_116_1315
*1494 FILLER_116_1379
*1495 FILLER_116_1383
*1496 FILLER_116_1386
*1497 FILLER_116_1450
*1498 FILLER_116_1454
*1499 FILLER_116_1457
*1500 FILLER_116_1521
*1501 FILLER_116_1525
*1502 FILLER_116_1528