*SPEF "ieee 1481-1999"
*DESIGN "user_project_wrapper"
*DATE "11:11:11 Fri 11 11, 1111"
*VENDOR "OpenRCX"
*PROGRAM "Parallel Extraction"
*VERSION "1.0"
*DESIGN_FLOW "NAME_SCOPE LOCAL" "PIN_CAP NONE"
*DIVIDER /
*DELIMITER :
*BUS_DELIMITER []
*T_UNIT 1 NS
*C_UNIT 1 PF
*R_UNIT 1 OHM
*L_UNIT 1 HENRY

*NAME_MAP
*1 io_in[0]
*2 io_in[10]
*3 io_in[11]
*4 io_in[12]
*5 io_in[13]
*6 io_in[14]
*7 io_in[15]
*8 io_in[16]
*9 io_in[17]
*10 io_in[18]
*11 io_in[19]
*12 io_in[1]
*13 io_in[20]
*14 io_in[21]
*15 io_in[22]
*16 io_in[23]
*17 io_in[24]
*18 io_in[25]
*19 io_in[26]
*20 io_in[27]
*21 io_in[28]
*22 io_in[29]
*23 io_in[2]
*24 io_in[30]
*25 io_in[31]
*26 io_in[32]
*27 io_in[33]
*28 io_in[34]
*29 io_in[35]
*30 io_in[36]
*31 io_in[37]
*32 io_in[3]
*33 io_in[4]
*34 io_in[5]
*35 io_in[6]
*36 io_in[7]
*37 io_in[8]
*38 io_in[9]
*39 io_oeb[0]
*40 io_oeb[10]
*41 io_oeb[11]
*42 io_oeb[12]
*43 io_oeb[13]
*44 io_oeb[14]
*45 io_oeb[15]
*46 io_oeb[16]
*47 io_oeb[17]
*48 io_oeb[18]
*49 io_oeb[19]
*50 io_oeb[1]
*51 io_oeb[20]
*52 io_oeb[21]
*53 io_oeb[22]
*54 io_oeb[23]
*55 io_oeb[24]
*56 io_oeb[25]
*57 io_oeb[26]
*58 io_oeb[27]
*59 io_oeb[28]
*60 io_oeb[29]
*61 io_oeb[2]
*62 io_oeb[30]
*63 io_oeb[31]
*64 io_oeb[32]
*65 io_oeb[33]
*66 io_oeb[34]
*67 io_oeb[35]
*68 io_oeb[36]
*69 io_oeb[37]
*70 io_oeb[3]
*71 io_oeb[4]
*72 io_oeb[5]
*73 io_oeb[6]
*74 io_oeb[7]
*75 io_oeb[8]
*76 io_oeb[9]
*77 io_out[0]
*78 io_out[10]
*79 io_out[11]
*80 io_out[12]
*81 io_out[13]
*82 io_out[14]
*83 io_out[15]
*84 io_out[16]
*85 io_out[17]
*86 io_out[18]
*87 io_out[19]
*88 io_out[1]
*89 io_out[20]
*90 io_out[21]
*91 io_out[22]
*92 io_out[23]
*93 io_out[24]
*94 io_out[25]
*95 io_out[26]
*96 io_out[27]
*97 io_out[28]
*98 io_out[29]
*99 io_out[2]
*100 io_out[30]
*101 io_out[31]
*102 io_out[32]
*103 io_out[33]
*104 io_out[34]
*105 io_out[35]
*106 io_out[36]
*107 io_out[37]
*108 io_out[3]
*109 io_out[4]
*110 io_out[5]
*111 io_out[6]
*112 io_out[7]
*113 io_out[8]
*114 io_out[9]
*115 la_data_in[0]
*116 la_data_in[10]
*117 la_data_in[11]
*118 la_data_in[12]
*119 la_data_in[13]
*120 la_data_in[14]
*121 la_data_in[15]
*122 la_data_in[16]
*123 la_data_in[17]
*124 la_data_in[18]
*125 la_data_in[19]
*126 la_data_in[1]
*127 la_data_in[20]
*128 la_data_in[21]
*129 la_data_in[22]
*130 la_data_in[23]
*131 la_data_in[24]
*132 la_data_in[25]
*133 la_data_in[26]
*134 la_data_in[27]
*135 la_data_in[28]
*136 la_data_in[29]
*137 la_data_in[2]
*138 la_data_in[30]
*139 la_data_in[31]
*140 la_data_in[32]
*141 la_data_in[33]
*142 la_data_in[34]
*143 la_data_in[35]
*144 la_data_in[36]
*145 la_data_in[37]
*146 la_data_in[38]
*147 la_data_in[39]
*148 la_data_in[3]
*149 la_data_in[40]
*150 la_data_in[41]
*151 la_data_in[42]
*152 la_data_in[43]
*153 la_data_in[44]
*154 la_data_in[45]
*155 la_data_in[46]
*156 la_data_in[47]
*157 la_data_in[48]
*158 la_data_in[49]
*159 la_data_in[4]
*160 la_data_in[50]
*161 la_data_in[51]
*162 la_data_in[52]
*163 la_data_in[53]
*164 la_data_in[54]
*165 la_data_in[55]
*166 la_data_in[56]
*167 la_data_in[57]
*168 la_data_in[58]
*169 la_data_in[59]
*170 la_data_in[5]
*171 la_data_in[60]
*172 la_data_in[61]
*173 la_data_in[62]
*174 la_data_in[63]
*175 la_data_in[6]
*176 la_data_in[7]
*177 la_data_in[8]
*178 la_data_in[9]
*179 la_data_out[0]
*180 la_data_out[10]
*181 la_data_out[11]
*182 la_data_out[12]
*183 la_data_out[13]
*184 la_data_out[14]
*185 la_data_out[15]
*186 la_data_out[16]
*187 la_data_out[17]
*188 la_data_out[18]
*189 la_data_out[19]
*190 la_data_out[1]
*191 la_data_out[20]
*192 la_data_out[21]
*193 la_data_out[22]
*194 la_data_out[23]
*195 la_data_out[24]
*196 la_data_out[25]
*197 la_data_out[26]
*198 la_data_out[27]
*199 la_data_out[28]
*200 la_data_out[29]
*201 la_data_out[2]
*202 la_data_out[30]
*203 la_data_out[31]
*204 la_data_out[32]
*205 la_data_out[33]
*206 la_data_out[34]
*207 la_data_out[35]
*208 la_data_out[36]
*209 la_data_out[37]
*210 la_data_out[38]
*211 la_data_out[39]
*212 la_data_out[3]
*213 la_data_out[40]
*214 la_data_out[41]
*215 la_data_out[42]
*216 la_data_out[43]
*217 la_data_out[44]
*218 la_data_out[45]
*219 la_data_out[46]
*220 la_data_out[47]
*221 la_data_out[48]
*222 la_data_out[49]
*223 la_data_out[4]
*224 la_data_out[50]
*225 la_data_out[51]
*226 la_data_out[52]
*227 la_data_out[53]
*228 la_data_out[54]
*229 la_data_out[55]
*230 la_data_out[56]
*231 la_data_out[57]
*232 la_data_out[58]
*233 la_data_out[59]
*234 la_data_out[5]
*235 la_data_out[60]
*236 la_data_out[61]
*237 la_data_out[62]
*238 la_data_out[63]
*239 la_data_out[6]
*240 la_data_out[7]
*241 la_data_out[8]
*242 la_data_out[9]
*243 la_oenb[0]
*244 la_oenb[10]
*245 la_oenb[11]
*246 la_oenb[12]
*247 la_oenb[13]
*248 la_oenb[14]
*249 la_oenb[15]
*250 la_oenb[16]
*251 la_oenb[17]
*252 la_oenb[18]
*253 la_oenb[19]
*254 la_oenb[1]
*255 la_oenb[20]
*256 la_oenb[21]
*257 la_oenb[22]
*258 la_oenb[23]
*259 la_oenb[24]
*260 la_oenb[25]
*261 la_oenb[26]
*262 la_oenb[27]
*263 la_oenb[28]
*264 la_oenb[29]
*265 la_oenb[2]
*266 la_oenb[30]
*267 la_oenb[31]
*268 la_oenb[32]
*269 la_oenb[33]
*270 la_oenb[34]
*271 la_oenb[35]
*272 la_oenb[36]
*273 la_oenb[37]
*274 la_oenb[38]
*275 la_oenb[39]
*276 la_oenb[3]
*277 la_oenb[40]
*278 la_oenb[41]
*279 la_oenb[42]
*280 la_oenb[43]
*281 la_oenb[44]
*282 la_oenb[45]
*283 la_oenb[46]
*284 la_oenb[47]
*285 la_oenb[48]
*286 la_oenb[49]
*287 la_oenb[4]
*288 la_oenb[50]
*289 la_oenb[51]
*290 la_oenb[52]
*291 la_oenb[53]
*292 la_oenb[54]
*293 la_oenb[55]
*294 la_oenb[56]
*295 la_oenb[57]
*296 la_oenb[58]
*297 la_oenb[59]
*298 la_oenb[5]
*299 la_oenb[60]
*300 la_oenb[61]
*301 la_oenb[62]
*302 la_oenb[63]
*303 la_oenb[6]
*304 la_oenb[7]
*305 la_oenb[8]
*306 la_oenb[9]
*307 user_clock2
*308 user_irq[0]
*309 user_irq[1]
*310 user_irq[2]
*313 wb_clk_i
*314 wb_rst_i
*315 wbs_ack_o
*316 wbs_adr_i[0]
*317 wbs_adr_i[10]
*318 wbs_adr_i[11]
*319 wbs_adr_i[12]
*320 wbs_adr_i[13]
*321 wbs_adr_i[14]
*322 wbs_adr_i[15]
*323 wbs_adr_i[16]
*324 wbs_adr_i[17]
*325 wbs_adr_i[18]
*326 wbs_adr_i[19]
*327 wbs_adr_i[1]
*328 wbs_adr_i[20]
*329 wbs_adr_i[21]
*330 wbs_adr_i[22]
*331 wbs_adr_i[23]
*332 wbs_adr_i[24]
*333 wbs_adr_i[25]
*334 wbs_adr_i[26]
*335 wbs_adr_i[27]
*336 wbs_adr_i[28]
*337 wbs_adr_i[29]
*338 wbs_adr_i[2]
*339 wbs_adr_i[30]
*340 wbs_adr_i[31]
*341 wbs_adr_i[3]
*342 wbs_adr_i[4]
*343 wbs_adr_i[5]
*344 wbs_adr_i[6]
*345 wbs_adr_i[7]
*346 wbs_adr_i[8]
*347 wbs_adr_i[9]
*348 wbs_cyc_i
*349 wbs_dat_i[0]
*350 wbs_dat_i[10]
*351 wbs_dat_i[11]
*352 wbs_dat_i[12]
*353 wbs_dat_i[13]
*354 wbs_dat_i[14]
*355 wbs_dat_i[15]
*356 wbs_dat_i[16]
*357 wbs_dat_i[17]
*358 wbs_dat_i[18]
*359 wbs_dat_i[19]
*360 wbs_dat_i[1]
*361 wbs_dat_i[20]
*362 wbs_dat_i[21]
*363 wbs_dat_i[22]
*364 wbs_dat_i[23]
*365 wbs_dat_i[24]
*366 wbs_dat_i[25]
*367 wbs_dat_i[26]
*368 wbs_dat_i[27]
*369 wbs_dat_i[28]
*370 wbs_dat_i[29]
*371 wbs_dat_i[2]
*372 wbs_dat_i[30]
*373 wbs_dat_i[31]
*374 wbs_dat_i[3]
*375 wbs_dat_i[4]
*376 wbs_dat_i[5]
*377 wbs_dat_i[6]
*378 wbs_dat_i[7]
*379 wbs_dat_i[8]
*380 wbs_dat_i[9]
*381 wbs_dat_o[0]
*382 wbs_dat_o[10]
*383 wbs_dat_o[11]
*384 wbs_dat_o[12]
*385 wbs_dat_o[13]
*386 wbs_dat_o[14]
*387 wbs_dat_o[15]
*388 wbs_dat_o[16]
*389 wbs_dat_o[17]
*390 wbs_dat_o[18]
*391 wbs_dat_o[19]
*392 wbs_dat_o[1]
*393 wbs_dat_o[20]
*394 wbs_dat_o[21]
*395 wbs_dat_o[22]
*396 wbs_dat_o[23]
*397 wbs_dat_o[24]
*398 wbs_dat_o[25]
*399 wbs_dat_o[26]
*400 wbs_dat_o[27]
*401 wbs_dat_o[28]
*402 wbs_dat_o[29]
*403 wbs_dat_o[2]
*404 wbs_dat_o[30]
*405 wbs_dat_o[31]
*406 wbs_dat_o[3]
*407 wbs_dat_o[4]
*408 wbs_dat_o[5]
*409 wbs_dat_o[6]
*410 wbs_dat_o[7]
*411 wbs_dat_o[8]
*412 wbs_dat_o[9]
*413 wbs_sel_i[0]
*414 wbs_sel_i[1]
*415 wbs_sel_i[2]
*416 wbs_sel_i[3]
*417 wbs_stb_i
*418 wbs_we_i
*419 plant_example_1

*PORTS
io_in[0] I
io_in[10] I
io_in[11] I
io_in[12] I
io_in[13] I
io_in[14] I
io_in[15] I
io_in[16] I
io_in[17] I
io_in[18] I
io_in[19] I
io_in[1] I
io_in[20] I
io_in[21] I
io_in[22] I
io_in[23] I
io_in[24] I
io_in[25] I
io_in[26] I
io_in[27] I
io_in[28] I
io_in[29] I
io_in[2] I
io_in[30] I
io_in[31] I
io_in[32] I
io_in[33] I
io_in[34] I
io_in[35] I
io_in[36] I
io_in[37] I
io_in[3] I
io_in[4] I
io_in[5] I
io_in[6] I
io_in[7] I
io_in[8] I
io_in[9] I
io_oeb[0] O
io_oeb[10] O
io_oeb[11] O
io_oeb[12] O
io_oeb[13] O
io_oeb[14] O
io_oeb[15] O
io_oeb[16] O
io_oeb[17] O
io_oeb[18] O
io_oeb[19] O
io_oeb[1] O
io_oeb[20] O
io_oeb[21] O
io_oeb[22] O
io_oeb[23] O
io_oeb[24] O
io_oeb[25] O
io_oeb[26] O
io_oeb[27] O
io_oeb[28] O
io_oeb[29] O
io_oeb[2] O
io_oeb[30] O
io_oeb[31] O
io_oeb[32] O
io_oeb[33] O
io_oeb[34] O
io_oeb[35] O
io_oeb[36] O
io_oeb[37] O
io_oeb[3] O
io_oeb[4] O
io_oeb[5] O
io_oeb[6] O
io_oeb[7] O
io_oeb[8] O
io_oeb[9] O
io_out[0] O
io_out[10] O
io_out[11] O
io_out[12] O
io_out[13] O
io_out[14] O
io_out[15] O
io_out[16] O
io_out[17] O
io_out[18] O
io_out[19] O
io_out[1] O
io_out[20] O
io_out[21] O
io_out[22] O
io_out[23] O
io_out[24] O
io_out[25] O
io_out[26] O
io_out[27] O
io_out[28] O
io_out[29] O
io_out[2] O
io_out[30] O
io_out[31] O
io_out[32] O
io_out[33] O
io_out[34] O
io_out[35] O
io_out[36] O
io_out[37] O
io_out[3] O
io_out[4] O
io_out[5] O
io_out[6] O
io_out[7] O
io_out[8] O
io_out[9] O
la_data_in[0] I
la_data_in[10] I
la_data_in[11] I
la_data_in[12] I
la_data_in[13] I
la_data_in[14] I
la_data_in[15] I
la_data_in[16] I
la_data_in[17] I
la_data_in[18] I
la_data_in[19] I
la_data_in[1] I
la_data_in[20] I
la_data_in[21] I
la_data_in[22] I
la_data_in[23] I
la_data_in[24] I
la_data_in[25] I
la_data_in[26] I
la_data_in[27] I
la_data_in[28] I
la_data_in[29] I
la_data_in[2] I
la_data_in[30] I
la_data_in[31] I
la_data_in[32] I
la_data_in[33] I
la_data_in[34] I
la_data_in[35] I
la_data_in[36] I
la_data_in[37] I
la_data_in[38] I
la_data_in[39] I
la_data_in[3] I
la_data_in[40] I
la_data_in[41] I
la_data_in[42] I
la_data_in[43] I
la_data_in[44] I
la_data_in[45] I
la_data_in[46] I
la_data_in[47] I
la_data_in[48] I
la_data_in[49] I
la_data_in[4] I
la_data_in[50] I
la_data_in[51] I
la_data_in[52] I
la_data_in[53] I
la_data_in[54] I
la_data_in[55] I
la_data_in[56] I
la_data_in[57] I
la_data_in[58] I
la_data_in[59] I
la_data_in[5] I
la_data_in[60] I
la_data_in[61] I
la_data_in[62] I
la_data_in[63] I
la_data_in[6] I
la_data_in[7] I
la_data_in[8] I
la_data_in[9] I
la_data_out[0] O
la_data_out[10] O
la_data_out[11] O
la_data_out[12] O
la_data_out[13] O
la_data_out[14] O
la_data_out[15] O
la_data_out[16] O
la_data_out[17] O
la_data_out[18] O
la_data_out[19] O
la_data_out[1] O
la_data_out[20] O
la_data_out[21] O
la_data_out[22] O
la_data_out[23] O
la_data_out[24] O
la_data_out[25] O
la_data_out[26] O
la_data_out[27] O
la_data_out[28] O
la_data_out[29] O
la_data_out[2] O
la_data_out[30] O
la_data_out[31] O
la_data_out[32] O
la_data_out[33] O
la_data_out[34] O
la_data_out[35] O
la_data_out[36] O
la_data_out[37] O
la_data_out[38] O
la_data_out[39] O
la_data_out[3] O
la_data_out[40] O
la_data_out[41] O
la_data_out[42] O
la_data_out[43] O
la_data_out[44] O
la_data_out[45] O
la_data_out[46] O
la_data_out[47] O
la_data_out[48] O
la_data_out[49] O
la_data_out[4] O
la_data_out[50] O
la_data_out[51] O
la_data_out[52] O
la_data_out[53] O
la_data_out[54] O
la_data_out[55] O
la_data_out[56] O
la_data_out[57] O
la_data_out[58] O
la_data_out[59] O
la_data_out[5] O
la_data_out[60] O
la_data_out[61] O
la_data_out[62] O
la_data_out[63] O
la_data_out[6] O
la_data_out[7] O
la_data_out[8] O
la_data_out[9] O
la_oenb[0] I
la_oenb[10] I
la_oenb[11] I
la_oenb[12] I
la_oenb[13] I
la_oenb[14] I
la_oenb[15] I
la_oenb[16] I
la_oenb[17] I
la_oenb[18] I
la_oenb[19] I
la_oenb[1] I
la_oenb[20] I
la_oenb[21] I
la_oenb[22] I
la_oenb[23] I
la_oenb[24] I
la_oenb[25] I
la_oenb[26] I
la_oenb[27] I
la_oenb[28] I
la_oenb[29] I
la_oenb[2] I
la_oenb[30] I
la_oenb[31] I
la_oenb[32] I
la_oenb[33] I
la_oenb[34] I
la_oenb[35] I
la_oenb[36] I
la_oenb[37] I
la_oenb[38] I
la_oenb[39] I
la_oenb[3] I
la_oenb[40] I
la_oenb[41] I
la_oenb[42] I
la_oenb[43] I
la_oenb[44] I
la_oenb[45] I
la_oenb[46] I
la_oenb[47] I
la_oenb[48] I
la_oenb[49] I
la_oenb[4] I
la_oenb[50] I
la_oenb[51] I
la_oenb[52] I
la_oenb[53] I
la_oenb[54] I
la_oenb[55] I
la_oenb[56] I
la_oenb[57] I
la_oenb[58] I
la_oenb[59] I
la_oenb[5] I
la_oenb[60] I
la_oenb[61] I
la_oenb[62] I
la_oenb[63] I
la_oenb[6] I
la_oenb[7] I
la_oenb[8] I
la_oenb[9] I
user_clock2 I
user_irq[0] O
user_irq[1] O
user_irq[2] O
wb_clk_i I
wb_rst_i I
wbs_ack_o O
wbs_adr_i[0] I
wbs_adr_i[10] I
wbs_adr_i[11] I
wbs_adr_i[12] I
wbs_adr_i[13] I
wbs_adr_i[14] I
wbs_adr_i[15] I
wbs_adr_i[16] I
wbs_adr_i[17] I
wbs_adr_i[18] I
wbs_adr_i[19] I
wbs_adr_i[1] I
wbs_adr_i[20] I
wbs_adr_i[21] I
wbs_adr_i[22] I
wbs_adr_i[23] I
wbs_adr_i[24] I
wbs_adr_i[25] I
wbs_adr_i[26] I
wbs_adr_i[27] I
wbs_adr_i[28] I
wbs_adr_i[29] I
wbs_adr_i[2] I
wbs_adr_i[30] I
wbs_adr_i[31] I
wbs_adr_i[3] I
wbs_adr_i[4] I
wbs_adr_i[5] I
wbs_adr_i[6] I
wbs_adr_i[7] I
wbs_adr_i[8] I
wbs_adr_i[9] I
wbs_cyc_i I
wbs_dat_i[0] I
wbs_dat_i[10] I
wbs_dat_i[11] I
wbs_dat_i[12] I
wbs_dat_i[13] I
wbs_dat_i[14] I
wbs_dat_i[15] I
wbs_dat_i[16] I
wbs_dat_i[17] I
wbs_dat_i[18] I
wbs_dat_i[19] I
wbs_dat_i[1] I
wbs_dat_i[20] I
wbs_dat_i[21] I
wbs_dat_i[22] I
wbs_dat_i[23] I
wbs_dat_i[24] I
wbs_dat_i[25] I
wbs_dat_i[26] I
wbs_dat_i[27] I
wbs_dat_i[28] I
wbs_dat_i[29] I
wbs_dat_i[2] I
wbs_dat_i[30] I
wbs_dat_i[31] I
wbs_dat_i[3] I
wbs_dat_i[4] I
wbs_dat_i[5] I
wbs_dat_i[6] I
wbs_dat_i[7] I
wbs_dat_i[8] I
wbs_dat_i[9] I
wbs_dat_o[0] O
wbs_dat_o[10] O
wbs_dat_o[11] O
wbs_dat_o[12] O
wbs_dat_o[13] O
wbs_dat_o[14] O
wbs_dat_o[15] O
wbs_dat_o[16] O
wbs_dat_o[17] O
wbs_dat_o[18] O
wbs_dat_o[19] O
wbs_dat_o[1] O
wbs_dat_o[20] O
wbs_dat_o[21] O
wbs_dat_o[22] O
wbs_dat_o[23] O
wbs_dat_o[24] O
wbs_dat_o[25] O
wbs_dat_o[26] O
wbs_dat_o[27] O
wbs_dat_o[28] O
wbs_dat_o[29] O
wbs_dat_o[2] O
wbs_dat_o[30] O
wbs_dat_o[31] O
wbs_dat_o[3] O
wbs_dat_o[4] O
wbs_dat_o[5] O
wbs_dat_o[6] O
wbs_dat_o[7] O
wbs_dat_o[8] O
wbs_dat_o[9] O
wbs_sel_i[0] I
wbs_sel_i[1] I
wbs_sel_i[2] I
wbs_sel_i[3] I
wbs_stb_i I
wbs_we_i I

*D_NET *1 0.291809
*CONN
*P io_in[0] I
*I *419:io_in[0] I *D plant_example
*CAP
1 io_in[0] 0.00155215
2 *419:io_in[0] 0.000223965
3 *1:12 0.0362545
4 *1:11 0.0360306
5 *1:9 0.108098
6 *1:7 0.10965
7 *1:9 *313:8 0
8 *1:12 *67:11 0
*RES
1 io_in[0] *1:7 13.005 
2 *1:7 *1:9 847.8 
3 *1:9 *1:11 4.5 
4 *1:11 *1:12 277.29 
5 *1:12 *419:io_in[0] 1.485 
*END

*D_NET *2 0.515792
*CONN
*P io_in[10] I
*I *419:io_in[10] I *D plant_example
*CAP
1 io_in[10] 0.000315675
2 *419:io_in[10] 0.000770341
3 *2:11 0.112283
4 *2:10 0.111512
5 *2:8 0.00542322
6 *2:7 0.0057389
7 *419:io_in[10] *40:9 0
8 *419:io_in[10] *111:11 0.000925075
9 *2:8 *3:8 0.000530808
10 *2:8 *35:8 0.00142233
11 *2:8 *36:8 0.00045778
12 *2:8 *37:8 0.0769833
13 *2:8 *38:8 0.100978
14 *2:8 *40:17 0.00156673
15 *2:8 *42:13 0.000690404
16 *2:8 *43:17 0.0485511
17 *2:8 *44:17 0.00824407
18 *2:8 *61:13 0.000796198
19 *2:11 *419:io_in[18] 0.000264909
20 *2:11 *419:io_in[26] 0.00037809
21 *2:11 *419:io_in[33] 0.000264909
22 *2:11 *16:14 0.0287727
23 *2:11 *32:11 0
24 *2:11 *52:10 0.000916022
25 *2:11 *67:8 0.0051387
26 *2:11 *78:10 0.000519449
27 *2:11 *96:10 0.00100828
28 *2:11 *100:10 0.00134042
*RES
1 io_in[10] *2:7 6.885 
2 *2:7 *2:8 353.07 
3 *2:8 *2:10 4.5 
4 *2:10 *2:11 780.75 
5 *2:11 *419:io_in[10] 11.025 
*END

*D_NET *3 0.521971
*CONN
*P io_in[11] I
*I *419:io_in[11] I *D plant_example
*CAP
1 io_in[11] 0.000436219
2 *419:io_in[11] 0.00120892
3 *3:11 0.094284
4 *3:10 0.0930751
5 *3:8 0.00105842
6 *3:7 0.00149464
7 *419:io_in[11] *41:9 0
8 *419:io_in[11] *78:11 0.000487241
9 *3:8 *4:8 0.000596087
10 *3:8 *5:8 0.000171428
11 *3:8 *7:11 0.000933113
12 *3:8 *40:17 0.150115
13 *3:8 *41:13 0.157397
14 *3:8 *42:13 0.0037252
15 *3:8 *61:13 0.00165316
16 *3:11 *32:11 0
17 *3:11 *50:8 0
18 *3:11 *80:10 0.000596185
19 *3:11 *108:8 0.0142076
20 *2:8 *3:8 0.000530808
*RES
1 io_in[11] *3:7 7.605 
2 *3:7 *3:8 414.09 
3 *3:8 *3:10 4.5 
4 *3:10 *3:11 772.47 
5 *3:11 *419:io_in[11] 13.725 
*END

*D_NET *4 0.56107
*CONN
*P io_in[12] I
*I *419:io_in[12] I *D plant_example
*CAP
1 io_in[12] 0.000518064
2 *419:io_in[12] 0.00175255
3 *4:11 0.0965857
4 *4:10 0.0948332
5 *4:8 0.00135446
6 *4:7 0.00187252
7 *4:8 *5:8 0.0152152
8 *4:8 *7:11 0.184555
9 *4:8 *82:17 0.152786
10 *4:11 *50:8 0
11 *4:11 *61:10 0
12 *4:11 *89:10 0.000597214
13 *4:11 *90:10 0.00507419
14 *4:11 *105:8 0.00532983
15 *3:8 *4:8 0.000596087
*RES
1 io_in[12] *4:7 8.145 
2 *4:7 *4:8 475.11 
3 *4:8 *4:10 4.5 
4 *4:10 *4:11 764.37 
5 *4:11 *419:io_in[12] 16.425 
*END

*D_NET *5 0.609834
*CONN
*P io_in[13] I
*I *419:io_in[13] I *D plant_example
*CAP
1 io_in[13] 0.000561164
2 *419:io_in[13] 0.000179568
3 *5:11 0.0923288
4 *5:10 0.0921493
5 *5:8 0.00187051
6 *5:7 0.00243168
7 *419:io_in[13] *43:9 0
8 *5:8 *6:8 0.210655
9 *5:8 *32:8 0.000781108
10 *5:8 *50:11 0.00373922
11 *5:8 *61:13 3.26604e-05
12 *5:8 *82:17 0.177845
13 *5:11 *23:11 0
14 *5:11 *30:15 0.000376463
15 *5:11 *69:7 0.000217145
16 *5:11 *104:10 0.0112796
17 *3:8 *5:8 0.000171428
18 *4:8 *5:8 0.0152152
*RES
1 io_in[13] *5:7 8.505 
2 *5:7 *5:8 549.63 
3 *5:8 *5:10 4.5 
4 *5:10 *5:11 756.45 
5 *5:11 *419:io_in[13] 5.625 
*END

*D_NET *6 0.501803
*CONN
*P io_in[14] I
*I *419:io_in[14] I *D plant_example
*CAP
1 io_in[14] 0.000687963
2 *419:io_in[14] 0.00245286
3 *6:11 0.0965778
4 *6:10 0.0941249
5 *6:8 0.0398326
6 *6:7 0.0405205
7 *419:io_in[14] *30:15 0.000229357
8 *419:io_in[14] *80:11 0
9 *6:8 *82:17 0.0113086
10 *6:11 *61:10 0
11 *6:11 *81:16 0
12 *6:11 *106:10 0.00541352
13 *5:8 *6:8 0.210655
*RES
1 io_in[14] *6:7 8.685 
2 *6:7 *6:8 599.85 
3 *6:8 *6:10 4.5 
4 *6:10 *6:11 750.69 
5 *6:11 *419:io_in[14] 21.375 
*END

*D_NET *7 0.659476
*CONN
*P io_in[15] I
*I *419:io_in[15] I *D plant_example
*CAP
1 io_in[15] 0.00277133
2 *419:io_in[15] 0.00277363
3 *7:14 0.0895726
4 *7:13 0.086799
5 *7:11 0.0120554
6 *7:10 0.0148267
7 *419:io_in[15] *30:15 0.000229357
8 *7:11 *41:13 0.174116
9 *7:11 *42:13 0.00523539
10 *7:11 *43:17 0.00413171
11 *7:11 *44:17 0
12 *7:11 *82:17 0.0263882
13 *7:14 *103:14 0.0550882
14 *3:8 *7:11 0.000933113
15 *4:8 *7:11 0.184555
*RES
1 io_in[15] *7:10 31.275 
2 *7:10 *7:11 642.69 
3 *7:11 *7:13 4.5 
4 *7:13 *7:14 743.31 
5 *7:14 *419:io_in[15] 23.535 
*END

*D_NET *8 0.651016
*CONN
*P io_in[16] I
*I *419:io_in[16] I *D plant_example
*CAP
1 io_in[16] 0.000523307
2 *419:io_in[16] 0.000120653
3 *8:11 0.0873083
4 *8:10 0.0871876
5 *8:8 0.00687475
6 *8:7 0.00739806
7 *8:8 *45:14 0.245561
8 *8:8 *46:10 0.215699
9 *8:8 *54:14 0.000342934
10 *8:11 *45:11 0
*RES
1 io_in[16] *8:7 8.505 
2 *8:7 *8:8 614.61 
3 *8:8 *8:10 4.5 
4 *8:10 *8:11 664.29 
5 *8:11 *419:io_in[16] 0.945 
*END

*D_NET *9 0.477521
*CONN
*P io_in[17] I
*I *419:io_in[17] I *D plant_example
*CAP
1 io_in[17] 0.000648794
2 *419:io_in[17] 5.17084e-05
3 *9:19 0.0873272
4 *9:18 0.0872755
5 *9:16 0.00985416
6 *9:15 0.010503
7 *9:16 *10:8 0.06421
8 *9:16 *46:10 0.199382
9 *9:16 *54:14 0.0182685
*RES
1 io_in[17] *9:15 10.305 
2 *9:15 *9:16 499.05 
3 *9:16 *9:18 4.5 
4 *9:18 *9:19 664.65 
5 *9:19 *419:io_in[17] 0.405 
*END

*D_NET *10 0.316467
*CONN
*P io_in[18] I
*I *419:io_in[18] I *D plant_example
*CAP
1 io_in[18] 0.000431381
2 *419:io_in[18] 0.00113358
3 *10:11 0.0861355
4 *10:10 0.0850019
5 *10:8 0.0270993
6 *10:7 0.0275307
7 *419:io_in[18] *67:8 0.000129167
8 *419:io_in[18] *85:9 0
9 *10:8 *54:14 0.016102
10 *10:11 io_oeb[21] 0
11 *10:11 *85:9 0.00842836
12 *10:11 *97:17 0
13 *2:11 *419:io_in[18] 0.000264909
14 *9:16 *10:8 0.06421
*RES
1 io_in[18] *10:7 7.785 
2 *10:7 *10:8 388.35 
3 *10:8 *10:10 4.5 
4 *10:10 *10:11 658.89 
5 *10:11 *419:io_in[18] 17.865 
*END

*D_NET *11 0.280759
*CONN
*P io_in[19] I
*I *419:io_in[19] I *D plant_example
*CAP
1 io_in[19] 0.00164583
2 *419:io_in[19] 0.00145266
3 *11:15 0.0869933
4 *11:14 0.0855406
5 *11:12 0.0260159
6 *11:10 0.0276617
7 *419:io_in[19] *16:14 0.00174977
8 *419:io_in[19] *32:11 7.96632e-05
9 *419:io_in[19] *49:11 0
10 *11:12 io_oeb[19] 0.000231119
11 *11:12 *15:8 0.00547816
12 *11:12 *89:14 0.0435503
13 *11:15 *419:io_in[20] 0
14 *11:15 *13:11 0
15 *11:15 *87:9 0.000360047
16 *11:15 *87:13 0
*RES
1 io_in[19] *11:10 16.875 
2 *11:10 *11:12 263.34 
3 *11:12 *11:14 4.5 
4 *11:14 *11:15 653.13 
5 *11:15 *419:io_in[19] 20.655 
*END

*D_NET *12 0.270548
*CONN
*P io_in[1] I
*I *419:io_in[1] I *D plant_example
*CAP
1 io_in[1] 0.000370905
2 *419:io_in[1] 0.000221329
3 *12:16 0.0266102
4 *12:15 0.0263888
5 *12:13 0.108272
6 *12:11 0.108643
7 *419:io_in[1] *28:11 0
8 *419:io_in[1] *30:15 4.12821e-05
*RES
1 io_in[1] *12:11 3.195 
2 *12:11 *12:13 849.51 
3 *12:13 *12:15 4.5 
4 *12:15 *12:16 215.37 
5 *12:16 *419:io_in[1] 10.755 
*END

*D_NET *13 0.217201
*CONN
*P io_in[20] I
*I *419:io_in[20] I *D plant_example
*CAP
1 io_in[20] 0.0407067
2 *419:io_in[20] 0.00216978
3 *13:11 0.047254
4 *13:10 0.0450842
5 *13:8 0.0205252
6 *13:7 0.0205252
7 *13:5 0.0407067
8 *419:io_in[20] *30:15 0.000229357
9 *11:15 *419:io_in[20] 0
10 *11:15 *13:11 0
*RES
1 io_in[20] *13:5 313.425 
2 *13:5 *13:7 4.5 
3 *13:7 *13:8 159.39 
4 *13:8 *13:10 4.5 
5 *13:10 *13:11 341.64 
6 *13:11 *419:io_in[20] 14.895 
*END

*D_NET *14 0.188584
*CONN
*P io_in[21] I
*I *419:io_in[21] I *D plant_example
*CAP
1 io_in[21] 0.00167517
2 *419:io_in[21] 0.000120653
3 *14:17 0.0151071
4 *14:16 0.0149865
5 *14:14 0.00556554
6 *14:11 0.0774713
7 *14:10 0.0735809
8 *14:10 *89:14 7.68201e-05
9 *14:17 *52:11 0
10 *14:17 *89:10 0
*RES
1 io_in[21] *14:10 19.215 
2 *14:10 *14:11 552.15 
3 *14:11 *14:14 46.35 
4 *14:14 *14:16 4.5 
5 *14:16 *14:17 109.17 
6 *14:17 *419:io_in[21] 0.945 
*END

*D_NET *15 0.205652
*CONN
*P io_in[22] I
*I *419:io_in[22] I *D plant_example
*CAP
1 io_in[22] 0.00106784
2 *419:io_in[22] 0.00136814
3 *15:11 0.0871761
4 *15:10 0.085808
5 *15:8 0.00599013
6 *15:7 0.00705798
7 *419:io_in[22] *16:14 0.00173335
8 *419:io_in[22] *32:11 8.90509e-05
9 *15:8 io_oeb[21] 0.00970919
10 *15:8 *16:8 0.000174537
11 *11:12 *15:8 0.00547816
*RES
1 io_in[22] *15:7 12.645 
2 *15:7 *15:8 65.25 
3 *15:8 *15:10 4.5 
4 *15:10 *15:11 653.31 
5 *15:11 *419:io_in[22] 20.475 
*END

*D_NET *16 0.246871
*CONN
*P io_in[23] I
*I *419:io_in[23] I *D plant_example
*CAP
1 io_in[23] 0.00109083
2 *419:io_in[23] 0.00099157
3 *16:14 0.00692149
4 *16:13 0.00592992
5 *16:11 0.0855033
6 *16:10 0.0855033
7 *16:8 0.0137049
8 *16:7 0.0147958
9 *419:io_in[23] *54:9 0
10 *16:11 *43:11 0
11 *16:11 *80:10 0
12 *16:14 *32:11 0
13 *419:io_in[19] *16:14 0.00174977
14 *419:io_in[22] *16:14 0.00173335
15 *2:11 *16:14 0.0287727
16 *15:8 *16:8 0.000174537
*RES
1 io_in[23] *16:7 12.825 
2 *16:7 *16:8 106.83 
3 *16:8 *16:10 4.5 
4 *16:10 *16:11 653.31 
5 *16:11 *16:13 4.5 
6 *16:13 *16:14 76.95 
7 *16:14 *419:io_in[23] 11.205 
*END

*D_NET *17 0.259872
*CONN
*P io_in[24] I
*I *419:io_in[24] I *D plant_example
*CAP
1 io_in[24] 0.000201168
2 *419:io_in[24] 0.00222289
3 *17:22 0.0158991
4 *17:21 0.0164718
5 *17:16 0.0730486
6 *17:15 0.070253
7 *17:13 0.0406726
8 *17:11 0.0408737
9 *419:io_in[24] *30:15 0.000229357
10 *17:22 *92:11 0
*RES
1 io_in[24] *17:11 1.935 
2 *17:11 *17:13 257.31 
3 *17:13 *17:15 4.5 
4 *17:15 *17:16 538.83 
5 *17:16 *17:21 29.43 
6 *17:21 *17:22 101.34 
7 *17:22 *419:io_in[24] 15.435 
*END

*D_NET *18 0.245302
*CONN
*P io_in[25] I
*I *419:io_in[25] I *D plant_example
*CAP
1 io_in[25] 0.000125876
2 *419:io_in[25] 0.00215249
3 *18:22 0.015826
4 *18:21 0.0145635
5 *18:16 0.0623746
6 *18:15 0.0614845
7 *18:13 0.0442102
8 *18:11 0.044336
9 *419:io_in[25] *30:15 0.000229357
10 *18:16 *55:11 0
*RES
1 io_in[25] *18:11 1.395 
2 *18:11 *18:13 278.91 
3 *18:13 *18:15 4.5 
4 *18:15 *18:16 471.33 
5 *18:16 *18:21 15.93 
6 *18:21 *18:22 101.34 
7 *18:22 *419:io_in[25] 14.895 
*END

*D_NET *19 0.213103
*CONN
*P io_in[26] I
*I *419:io_in[26] I *D plant_example
*CAP
1 io_in[26] 0.00242379
2 *419:io_in[26] 0.00126748
3 *19:12 0.0686379
4 *19:11 0.0673704
5 *19:9 0.0352169
6 *19:7 0.0376407
7 *419:io_in[26] *57:7 0
8 *419:io_in[26] *67:8 0.000167906
9 *19:12 *94:9 0
10 *2:11 *419:io_in[26] 0.00037809
*RES
1 io_in[26] *19:7 18.585 
2 *19:7 *19:9 274.14 
3 *19:9 *19:11 4.5 
4 *19:11 *19:12 512.19 
5 *19:12 *419:io_in[26] 17.595 
*END

*D_NET *20 0.197304
*CONN
*P io_in[27] I
*I *419:io_in[27] I *D plant_example
*CAP
1 io_in[27] 0.00035683
2 *419:io_in[27] 5.17084e-05
3 *20:22 0.0156115
4 *20:21 0.0176574
5 *20:16 0.0456654
6 *20:15 0.0435678
7 *20:13 0.0370185
8 *20:11 0.0373753
9 *20:16 *56:7 0
*RES
1 io_in[27] *20:11 3.015 
2 *20:11 *20:13 287.01 
3 *20:13 *20:15 4.5 
4 *20:15 *20:16 333.63 
5 *20:16 *20:21 24.03 
6 *20:21 *20:22 114.57 
7 *20:22 *419:io_in[27] 0.405 
*END

*D_NET *21 0.214913
*CONN
*P io_in[28] I
*I *419:io_in[28] I *D plant_example
*CAP
1 io_in[28] 0.00022804
2 *419:io_in[28] 0.00230785
3 *21:22 0.0168114
4 *21:21 0.0150466
5 *21:16 0.034462
6 *21:15 0.0339189
7 *21:13 0.0315781
8 *21:11 0.0318062
9 *419:io_in[28] *30:15 0.000229357
10 *419:io_in[28] *59:11 0
11 *419:io_in[28] *61:10 0.000237266
12 *419:io_in[28] *96:10 0
13 *21:13 *78:14 0.0482874
14 *21:16 *58:7 0
15 *21:21 *51:10 0
*RES
1 io_in[28] *21:11 2.295 
2 *21:11 *21:13 303.21 
3 *21:13 *21:15 4.5 
4 *21:15 *21:16 259.47 
5 *21:16 *21:21 13.23 
6 *21:21 *21:22 108.18 
7 *21:22 *419:io_in[28] 15.975 
*END

*D_NET *22 0.16596
*CONN
*P io_in[29] I
*I *419:io_in[29] I *D plant_example
*CAP
1 io_in[29] 0.000177869
2 *419:io_in[29] 0.00222289
3 *22:22 0.0167085
4 *22:21 0.0153692
5 *22:16 0.0259514
6 *22:15 0.0250679
7 *22:13 0.0400273
8 *22:11 0.0402052
9 *419:io_in[29] *30:15 0.000229357
10 *22:16 *59:11 0
11 *22:21 *51:10 0
12 *22:22 *97:11 0
*RES
1 io_in[29] *22:11 1.935 
2 *22:11 *22:13 308.61 
3 *22:13 *22:15 4.5 
4 *22:15 *22:16 191.79 
5 *22:16 *22:21 15.93 
6 *22:21 *22:22 108.18 
7 *22:22 *419:io_in[29] 15.435 
*END

*D_NET *23 0.399733
*CONN
*P io_in[2] I
*I *419:io_in[2] I *D plant_example
*CAP
1 io_in[2] 0.000492522
2 *419:io_in[2] 0
3 *23:11 0.0904398
4 *23:10 0.0904398
5 *23:8 0.00152784
6 *23:7 0.00202036
7 *23:8 *32:8 0.000299055
8 *23:8 *50:11 0.0589029
9 *23:8 *99:12 0.0494943
10 *23:11 *419:io_in[4] 0.000260442
11 *23:11 *30:15 0.10277
12 *23:11 *69:7 0.00308569
13 *5:11 *23:11 0
*RES
1 io_in[2] *23:7 8.505 
2 *23:7 *23:8 149.85 
3 *23:8 *23:10 4.5 
4 *23:10 *23:11 839.61 
5 *23:11 *419:io_in[2] 4.5 
*END

*D_NET *24 0.200164
*CONN
*P io_in[30] I
*I *419:io_in[30] I *D plant_example
*CAP
1 io_in[30] 0.00117627
2 *419:io_in[30] 0.00224524
3 *24:11 0.0328109
4 *24:10 0.0305657
5 *24:8 0.0294027
6 *24:7 0.030579
7 *419:io_in[30] *30:15 0.000229357
8 *419:io_in[30] *98:9 0.000751875
9 *419:io_in[30] *98:11 0.00545526
10 *24:11 *40:10 0.0588887
11 *24:11 *112:12 0.00805887
*RES
1 io_in[30] *24:7 13.365 
2 *24:7 *24:8 226.17 
3 *24:8 *24:10 4.5 
4 *24:10 *24:11 314.91 
5 *24:11 *419:io_in[30] 26.055 
*END

*D_NET *25 0.174329
*CONN
*P io_in[31] I
*I *419:io_in[31] I *D plant_example
*CAP
1 io_in[31] 0.0026209
2 *419:io_in[31] 0.00347141
3 *25:15 0.0349493
4 *25:14 0.0314779
5 *25:12 0.0201835
6 *25:11 0.0228044
7 *419:io_in[31] *100:10 0
8 *25:15 *41:10 0.0588217
9 *25:15 *71:14 0
*RES
1 io_in[31] *25:11 24.525 
2 *25:11 *25:12 155.25 
3 *25:12 *25:14 4.5 
4 *25:14 *25:15 312.03 
5 *25:15 *419:io_in[31] 28.395 
*END

*D_NET *26 0.118659
*CONN
*P io_in[32] I
*I *419:io_in[32] I *D plant_example
*CAP
1 io_in[32] 0.00194183
2 *419:io_in[32] 0.00372455
3 *26:11 0.0463363
4 *26:10 0.0426117
5 *26:8 0.0110516
6 *26:7 0.0129934
7 *419:io_in[32] *102:13 0
8 *26:11 *71:14 0
*RES
1 io_in[32] *26:7 18.765 
2 *26:7 *26:8 84.87 
3 *26:8 *26:10 4.5 
4 *26:10 *26:11 325.53 
5 *26:11 *419:io_in[32] 30.375 
*END

*D_NET *27 0.137395
*CONN
*P io_in[33] I
*I *419:io_in[33] I *D plant_example
*CAP
1 io_in[33] 0.000242542
2 *419:io_in[33] 0.00328302
3 *27:19 0.0342636
4 *27:18 0.0325776
5 *27:13 0.00864934
6 *27:11 0.00729485
7 *419:io_in[33] *67:8 0.000129167
8 *419:io_in[33] *102:12 0.00580459
9 *27:19 *85:10 0.0448853
10 *2:11 *419:io_in[33] 0.000264909
*RES
1 io_in[33] *27:11 2.475 
2 *27:11 *27:13 54.81 
3 *27:13 *27:18 21.15 
4 *27:18 *27:19 290.43 
5 *27:19 *419:io_in[33] 44.595 
*END

*D_NET *28 0.215743
*CONN
*P io_in[34] I
*I *419:io_in[34] I *D plant_example
*CAP
1 io_in[34] 0.00498398
2 *419:io_in[34] 0.000207807
3 *28:11 0.0155144
4 *28:10 0.0202906
5 *28:11 *419:io_in[4] 0
6 *28:11 *33:19 0.0894541
7 *28:11 *39:10 0
8 *28:11 *77:10 0
9 *28:11 *88:10 0
10 *28:11 *99:9 0.00802106
11 *28:11 *109:18 0.0772715
12 *419:io_in[1] *28:11 0
*RES
1 io_in[34] *28:10 46.395 
2 *28:10 *28:11 341.01 
3 *28:11 *419:io_in[34] 15.03 
*END

*D_NET *29 0.196714
*CONN
*P io_in[35] I
*I *419:io_in[35] I *D plant_example
*CAP
1 io_in[35] 0.00117627
2 *419:io_in[35] 0.000740068
3 *29:11 0.0297532
4 *29:10 0.0290132
5 *29:8 0.0128601
6 *29:7 0.0140364
7 *29:11 *45:10 0.00110425
8 *29:11 *48:10 0.000648015
9 *29:11 *67:8 0.106005
10 *29:11 *91:13 0.000604228
11 *29:11 *111:10 0.000773636
12 *29:11 *114:8 0
*RES
1 io_in[35] *29:7 13.365 
2 *29:7 *29:8 98.91 
3 *29:8 *29:10 4.5 
4 *29:10 *29:11 353.97 
5 *29:11 *419:io_in[35] 9.765 
*END

*D_NET *30 0.292958
*CONN
*P io_in[36] I
*I *419:io_in[36] I *D plant_example
*CAP
1 io_in[36] 0.00260374
2 *419:io_in[36] 0
3 *30:15 0.0140906
4 *30:14 0.0140906
5 *30:12 0.0210945
6 *30:11 0.0236982
7 *30:15 *419:io_in[5] 0.000229357
8 *30:15 *419:io_in[9] 0.000229357
9 *30:15 *39:10 1.38672e-05
10 *30:15 *40:9 0.000229357
11 *30:15 *43:9 0.000229357
12 *30:15 *44:9 0.000229357
13 *30:15 *49:11 0.000229357
14 *30:15 *51:5 0.000229357
15 *30:15 *54:9 0.000229357
16 *30:15 *55:9 0.000229357
17 *30:15 *56:5 0.000229357
18 *30:15 *59:9 0.000229357
19 *30:15 *60:9 0.000229357
20 *30:15 *62:5 0.000229357
21 *30:15 *71:13 0.000229357
22 *30:15 *72:5 0.000229357
23 *30:15 *76:9 0.000229357
24 *30:15 *77:10 2.75746e-05
25 *30:15 *81:16 0.000229357
26 *30:15 *82:9 0.000229357
27 *30:15 *86:9 0.000229357
28 *30:15 *87:9 0.000229357
29 *30:15 *88:10 6.86971e-05
30 *30:15 *92:11 0.000229357
31 *30:15 *93:9 0.000229357
32 *30:15 *97:11 0.000229357
33 *30:15 *104:10 0.106972
34 *419:io_in[14] *30:15 0.000229357
35 *419:io_in[15] *30:15 0.000229357
36 *419:io_in[1] *30:15 4.12821e-05
37 *419:io_in[20] *30:15 0.000229357