*SPEF "ieee 1481-1999"
*DESIGN "plant_example"
*DATE "11:11:11 Fri 11 11, 1111"
*VENDOR "OpenRCX"
*PROGRAM "Parallel Extraction"
*VERSION "1.0"
*DESIGN_FLOW "NAME_SCOPE LOCAL" "PIN_CAP NONE"
*DIVIDER /
*DELIMITER :
*BUS_DELIMITER []
*T_UNIT 1 NS
*C_UNIT 1 PF
*R_UNIT 1 OHM
*L_UNIT 1 HENRY

*NAME_MAP
*1 io_in[0]
*2 io_in[10]
*3 io_in[11]
*4 io_in[12]
*5 io_in[13]
*6 io_in[14]
*7 io_in[15]
*8 io_in[16]
*9 io_in[17]
*10 io_in[18]
*11 io_in[19]
*12 io_in[1]
*13 io_in[20]
*14 io_in[21]
*15 io_in[22]
*16 io_in[23]
*17 io_in[24]
*18 io_in[25]
*19 io_in[26]
*20 io_in[27]
*21 io_in[28]
*22 io_in[29]
*23 io_in[2]
*24 io_in[30]
*25 io_in[31]
*26 io_in[32]
*27 io_in[33]
*28 io_in[34]
*29 io_in[35]
*30 io_in[36]
*31 io_in[37]
*32 io_in[3]
*33 io_in[4]
*34 io_in[5]
*35 io_in[6]
*36 io_in[7]
*37 io_in[8]
*38 io_in[9]
*39 io_oeb[0]
*40 net21
*41 net22
*42 net23
*43 net24
*44 net25
*45 net26
*46 net27
*47 net28
*48 net29
*49 net30
*50 io_oeb[1]
*51 net31
*52 net32
*53 net33
*54 net34
*55 net35
*56 net36
*57 net37
*58 net38
*59 net39
*60 net40
*61 net13
*62 net41
*63 net42
*64 net43
*65 net44
*66 net45
*67 net46
*68 net47
*69 net48
*70 net14
*71 net15
*72 net16
*73 net17
*74 net18
*75 net19
*76 net20
*77 io_out[0]
*78 net58
*79 net59
*80 net60
*81 net61
*82 net62
*83 net63
*84 net64
*85 net65
*86 net66
*87 net67
*88 net49
*89 net68
*90 net69
*91 net70
*92 net71
*93 net72
*94 net73
*95 net74
*96 net75
*97 net76
*98 net77
*99 net50
*100 net78
*101 net79
*102 net80
*103 net81
*104 net82
*105 net83
*106 net84
*107 net85
*108 net51
*109 net52
*110 net53
*111 net54
*112 net55
*113 net56
*114 net57
*117 wb_clk_i
*118 wb_rst_i
*119 wbs_sel_i[0]
*120 wbs_sel_i[1]
*121 wbs_sel_i[2]
*122 wbs_sel_i[3]
*123 wbs_we_i
*124 _000_
*125 _001_
*126 _002_
*127 _003_
*128 _004_
*129 _005_
*130 _006_
*131 _007_
*132 _008_
*133 _009_
*134 _010_
*135 _011_
*136 _012_
*137 _013_
*138 _014_
*139 _015_
*140 _016_
*141 _017_
*142 _018_
*143 _019_
*144 _020_
*145 _021_
*146 _022_
*147 _023_
*148 _024_
*149 _025_
*150 _026_
*151 _027_
*152 _028_
*153 _029_
*154 _030_
*155 _031_
*156 _032_
*157 _033_
*158 _034_
*159 _035_
*160 _036_
*161 _037_
*162 _038_
*163 _039_
*164 _040_
*165 _041_
*166 _042_
*167 _043_
*168 _044_
*169 _045_
*170 _046_
*171 _047_
*172 _048_
*173 _049_
*174 _050_
*175 _051_
*176 _052_
*177 _053_
*178 _054_
*179 _055_
*180 _056_
*181 _057_
*182 clknet_0_wb_clk_i
*183 clknet_1_0__leaf_wb_clk_i
*184 clknet_1_1__leaf_wb_clk_i
*185 fsm_plant_opt\.state_temperature_synth_0
*186 fsm_plant_opt\.state_temperature_synth_1
*187 fsm_plant_opt\.state_temperature_synth_2
*188 fsm_plant_opt\.state_water_synth_0
*189 fsm_plant_opt\.state_water_synth_1
*190 fsm_plant_opt\.state_water_synth_2
*191 fsm_plant_opt\.tmp2409
*192 fsm_plant_opt\.tmp2410
*193 fsm_plant_opt\.tmp2411
*194 fsm_plant_opt\.tmp3553
*195 fsm_plant_opt\.tmp3554
*196 fsm_plant_opt\.tmp3555
*197 net1
*198 net10
*199 net11
*200 net12
*201 net2
*202 net3
*203 net4
*204 net5
*205 net6
*206 net7
*207 net8
*208 net9
*209 ANTENNA__058__I
*210 ANTENNA__059__A2
*211 ANTENNA__060__A2
*212 ANTENNA__060__A3
*213 ANTENNA__061__I
*214 ANTENNA__063__A1
*215 ANTENNA__063__A2
*216 ANTENNA__064__A1
*217 ANTENNA__064__A2
*218 ANTENNA__067__I
*219 ANTENNA__069__I
*220 ANTENNA__070__A2
*221 ANTENNA__071__A1
*222 ANTENNA__071__A2
*223 ANTENNA__072__A2
*224 ANTENNA__072__A3
*225 ANTENNA__074__A1
*226 ANTENNA__074__A2
*227 ANTENNA__075__A4
*228 ANTENNA__076__A1
*229 ANTENNA__077__A1
*230 ANTENNA__077__A2
*231 ANTENNA__078__A1
*232 ANTENNA__078__A2
*233 ANTENNA__078__A3
*234 ANTENNA__078__A4
*235 ANTENNA__080__A1
*236 ANTENNA__080__A2
*237 ANTENNA__082__A1
*238 ANTENNA__082__A2
*239 ANTENNA__086__A1
*240 ANTENNA__088__B
*241 ANTENNA__089__I0
*242 ANTENNA__090__B
*243 ANTENNA__091__I
*244 ANTENNA__094__A1
*245 ANTENNA__096__I
*246 ANTENNA__098__A1
*247 ANTENNA__098__A2
*248 ANTENNA__098__B
*249 ANTENNA__099__A4
*250 ANTENNA__100__A3
*251 ANTENNA__100__A4
*252 ANTENNA__104__A2
*253 ANTENNA__105__A2
*254 ANTENNA__105__A3
*255 ANTENNA__107__A1
*256 ANTENNA__107__A2
*257 ANTENNA__108__A2
*258 ANTENNA__108__A3
*259 ANTENNA__109__B
*260 ANTENNA__110__B1
*261 ANTENNA__111__A1
*262 ANTENNA__111__A2
*263 ANTENNA__116__A1
*264 ANTENNA__116__A2
*265 ANTENNA__120__A2
*266 ANTENNA__121__A1
*267 ANTENNA__123__A1
*268 ANTENNA__123__A2
*269 ANTENNA__125__D
*270 ANTENNA__126__D
*271 ANTENNA__127__D
*272 ANTENNA__128__D
*273 ANTENNA__129__D
*274 ANTENNA__130__D
*275 ANTENNA_clkbuf_0_wb_clk_i_I
*276 ANTENNA_input1_I
*277 ANTENNA_input2_I
*278 ANTENNA_input3_I
*279 ANTENNA_input4_I
*280 ANTENNA_input5_I
*281 ANTENNA_input6_I
*282 ANTENNA_input7_I
*283 ANTENNA_input8_I
*284 ANTENNA_input9_I
*285 ANTENNA_output10_I
*286 ANTENNA_output11_I
*287 ANTENNA_output12_I
*288 FILLER_0_1006
*289 FILLER_0_1010
*290 FILLER_0_1014
*291 FILLER_0_1017
*292 FILLER_0_1027
*293 FILLER_0_104
*294 FILLER_0_1043
*295 FILLER_0_1047
*296 FILLER_0_1049
*297 FILLER_0_1052
*298 FILLER_0_107
*299 FILLER_0_1084
*300 FILLER_0_1087
*301 FILLER_0_1119
*302 FILLER_0_1122
*303 FILLER_0_1154
*304 FILLER_0_1157
*305 FILLER_0_1189
*306 FILLER_0_1192
*307 FILLER_0_1224
*308 FILLER_0_1227
*309 FILLER_0_1243
*310 FILLER_0_1245
*311 FILLER_0_1248
*312 FILLER_0_1256
*313 FILLER_0_1262
*314 FILLER_0_1294
*315 FILLER_0_1297
*316 FILLER_0_1329
*317 FILLER_0_1332
*318 FILLER_0_1364
*319 FILLER_0_1367
*320 FILLER_0_137
*321 FILLER_0_139
*322 FILLER_0_1399
*323 FILLER_0_1402
*324 FILLER_0_142
*325 FILLER_0_1434
*326 FILLER_0_1437
*327 FILLER_0_1469
*328 FILLER_0_1472
*329 FILLER_0_1504
*330 FILLER_0_1507
*331 FILLER_0_1539
*332 FILLER_0_1542
*333 FILLER_0_1574
*334 FILLER_0_1577
*335 FILLER_0_172
*336 FILLER_0_174
*337 FILLER_0_177
*338 FILLER_0_2
*339 FILLER_0_209
*340 FILLER_0_212
*341 FILLER_0_244
*342 FILLER_0_247
*343 FILLER_0_279
*344 FILLER_0_282
*345 FILLER_0_314
*346 FILLER_0_317
*347 FILLER_0_325
*348 FILLER_0_329
*349 FILLER_0_332
*350 FILLER_0_34
*351 FILLER_0_342
*352 FILLER_0_352
*353 FILLER_0_37
*354 FILLER_0_384
*355 FILLER_0_387
*356 FILLER_0_419
*357 FILLER_0_422
*358 FILLER_0_454
*359 FILLER_0_457
*360 FILLER_0_489
*361 FILLER_0_492
*362 FILLER_0_524
*363 FILLER_0_527
*364 FILLER_0_543
*365 FILLER_0_551
*366 FILLER_0_555
*367 FILLER_0_559
*368 FILLER_0_562
*369 FILLER_0_569
*370 FILLER_0_585
*371 FILLER_0_593
*372 FILLER_0_597
*373 FILLER_0_629
*374 FILLER_0_632
*375 FILLER_0_664
*376 FILLER_0_667
*377 FILLER_0_69
*378 FILLER_0_699
*379 FILLER_0_702
*380 FILLER_0_72
*381 FILLER_0_734
*382 FILLER_0_737
*383 FILLER_0_769
*384 FILLER_0_772
*385 FILLER_0_804
*386 FILLER_0_807
*387 FILLER_0_810
*388 FILLER_0_826
*389 FILLER_0_834
*390 FILLER_0_838
*391 FILLER_0_842
*392 FILLER_0_874
*393 FILLER_0_877
*394 FILLER_0_909
*395 FILLER_0_912
*396 FILLER_0_944
*397 FILLER_0_947
*398 FILLER_0_979
*399 FILLER_0_982
*400 FILLER_0_998
*401 FILLER_100_101
*402 FILLER_100_1024
*403 FILLER_100_1028
*404 FILLER_100_1031
*405 FILLER_100_105
*406 FILLER_100_108
*407 FILLER_100_1095
*408 FILLER_100_1099
*409 FILLER_100_1102
*410 FILLER_100_1166
*411 FILLER_100_1170
*412 FILLER_100_1173
*413 FILLER_100_1237
*414 FILLER_100_1241
*415 FILLER_100_1244
*416 FILLER_100_1308
*417 FILLER_100_1312
*418 FILLER_100_1315
*419 FILLER_100_1379
*420 FILLER_100_1383
*421 FILLER_100_1386
*422 FILLER_100_1450
*423 FILLER_100_1454
*424 FILLER_100_1457
*425 FILLER_100_1521
*426 FILLER_100_1525
*427 FILLER_100_1528
*428 FILLER_100_1560
*429 FILLER_100_1576
*430 FILLER_100_1580
*431 FILLER_100_172
*432 FILLER_100_176
*433 FILLER_100_179
*434 FILLER_100_2
*435 FILLER_100_243
*436 FILLER_100_247
*437 FILLER_100_250
*438 FILLER_100_314
*439 FILLER_100_318
*440 FILLER_100_321
*441 FILLER_100_34
*442 FILLER_100_37
*443 FILLER_100_385
*444 FILLER_100_389
*445 FILLER_100_392
*446 FILLER_100_456
*447 FILLER_100_460
*448 FILLER_100_463
*449 FILLER_100_527
*450 FILLER_100_531
*451 FILLER_100_534
*452 FILLER_100_598
*453 FILLER_100_602
*454 FILLER_100_605
*455 FILLER_100_669
*456 FILLER_100_673
*457 FILLER_100_676
*458 FILLER_100_740
*459 FILLER_100_744
*460 FILLER_100_747
*461 FILLER_100_811
*462 FILLER_100_815
*463 FILLER_100_818
*464 FILLER_100_882
*465 FILLER_100_886
*466 FILLER_100_889
*467 FILLER_100_953
*468 FILLER_100_957
*469 FILLER_100_960
*470 FILLER_101_1060
*471 FILLER_101_1064
*472 FILLER_101_1067
*473 FILLER_101_1131
*474 FILLER_101_1135
*475 FILLER_101_1138
*476 FILLER_101_1202
*477 FILLER_101_1206
*478 FILLER_101_1209
*479 FILLER_101_1273
*480 FILLER_101_1277
*481 FILLER_101_1280
*482 FILLER_101_1344
*483 FILLER_101_1348
*484 FILLER_101_1351
*485 FILLER_101_137
*486 FILLER_101_141
*487 FILLER_101_1415
*488 FILLER_101_1419
*489 FILLER_101_1422
*490 FILLER_101_144
*491 FILLER_101_1486
*492 FILLER_101_1490
*493 FILLER_101_1493
*494 FILLER_101_1557
*495 FILLER_101_1561
*496 FILLER_101_1564
*497 FILLER_101_1580
*498 FILLER_101_2
*499 FILLER_101_208
*500 FILLER_101_212
*501 FILLER_101_215
*502 FILLER_101_279
*503 FILLER_101_283
*504 FILLER_101_286
*505 FILLER_101_350
*506 FILLER_101_354
*507 FILLER_101_357
*508 FILLER_101_421
*509 FILLER_101_425
*510 FILLER_101_428
*511 FILLER_101_492
*512 FILLER_101_496
*513 FILLER_101_499
*514 FILLER_101_563
*515 FILLER_101_567
*516 FILLER_101_570
*517 FILLER_101_634
*518 FILLER_101_638
*519 FILLER_101_641
*520 FILLER_101_66
*521 FILLER_101_70
*522 FILLER_101_705
*523 FILLER_101_709
*524 FILLER_101_712
*525 FILLER_101_73
*526 FILLER_101_776
*527 FILLER_101_780
*528 FILLER_101_783
*529 FILLER_101_847
*530 FILLER_101_851
*531 FILLER_101_854
*532 FILLER_101_918
*533 FILLER_101_922
*534 FILLER_101_925
*535 FILLER_101_989
*536 FILLER_101_993
*537 FILLER_101_996
*538 FILLER_102_101
*539 FILLER_102_1024
*540 FILLER_102_1028
*541 FILLER_102_1031
*542 FILLER_102_105
*543 FILLER_102_108
*544 FILLER_102_1095
*545 FILLER_102_1099
*546 FILLER_102_1102
*547 FILLER_102_1166
*548 FILLER_102_1170
*549 FILLER_102_1173
*550 FILLER_102_1237
*551 FILLER_102_1241
*552 FILLER_102_1244
*553 FILLER_102_1308
*554 FILLER_102_1312
*555 FILLER_102_1315
*556 FILLER_102_1379
*557 FILLER_102_1383
*558 FILLER_102_1386
*559 FILLER_102_1450
*560 FILLER_102_1454
*561 FILLER_102_1457
*562 FILLER_102_1521
*563 FILLER_102_1525
*564 FILLER_102_1528
*565 FILLER_102_1560
*566 FILLER_102_1576
*567 FILLER_102_1580
*568 FILLER_102_172
*569 FILLER_102_176
*570 FILLER_102_179
*571 FILLER_102_2
*572 FILLER_102_243
*573 FILLER_102_247
*574 FILLER_102_250
*575 FILLER_102_314
*576 FILLER_102_318
*577 FILLER_102_321
*578 FILLER_102_34
*579 FILLER_102_37
*580 FILLER_102_385
*581 FILLER_102_389
*582 FILLER_102_392
*583 FILLER_102_456
*584 FILLER_102_460
*585 FILLER_102_463
*586 FILLER_102_527
*587 FILLER_102_531
*588 FILLER_102_534
*589 FILLER_102_598
*590 FILLER_102_602
*591 FILLER_102_605
*592 FILLER_102_669
*593 FILLER_102_673
*594 FILLER_102_676
*595 FILLER_102_740
*596 FILLER_102_744
*597 FILLER_102_747
*598 FILLER_102_811
*599 FILLER_102_815
*600 FILLER_102_818
*601 FILLER_102_882
*602 FILLER_102_886
*603 FILLER_102_889
*604 FILLER_102_953
*605 FILLER_102_957
*606 FILLER_102_960
*607 FILLER_103_1060
*608 FILLER_103_1064
*609 FILLER_103_1067
*610 FILLER_103_1131
*611 FILLER_103_1135
*612 FILLER_103_1138
*613 FILLER_103_1202
*614 FILLER_103_1206
*615 FILLER_103_1209
*616 FILLER_103_1273
*617 FILLER_103_1277
*618 FILLER_103_1280
*619 FILLER_103_1344
*620 FILLER_103_1348
*621 FILLER_103_1351
*622 FILLER_103_137
*623 FILLER_103_141
*624 FILLER_103_1415
*625 FILLER_103_1419
*626 FILLER_103_1422
*627 FILLER_103_144
*628 FILLER_103_1486
*629 FILLER_103_1490
*630 FILLER_103_1493
*631 FILLER_103_1557
*632 FILLER_103_1561
*633 FILLER_103_1564
*634 FILLER_103_1580
*635 FILLER_103_2
*636 FILLER_103_208
*637 FILLER_103_212
*638 FILLER_103_215
*639 FILLER_103_279
*640 FILLER_103_283
*641 FILLER_103_286
*642 FILLER_103_350
*643 FILLER_103_354
*644 FILLER_103_357
*645 FILLER_103_421
*646 FILLER_103_425
*647 FILLER_103_428
*648 FILLER_103_492
*649 FILLER_103_496
*650 FILLER_103_499
*651 FILLER_103_563
*652 FILLER_103_567
*653 FILLER_103_570
*654 FILLER_103_634
*655 FILLER_103_638
*656 FILLER_103_641
*657 FILLER_103_66
*658 FILLER_103_70
*659 FILLER_103_705
*660 FILLER_103_709
*661 FILLER_103_712
*662 FILLER_103_73
*663 FILLER_103_776
*664 FILLER_103_780
*665 FILLER_103_783
*666 FILLER_103_847
*667 FILLER_103_851
*668 FILLER_103_854
*669 FILLER_103_918
*670 FILLER_103_922
*671 FILLER_103_925
*672 FILLER_103_989
*673 FILLER_103_993
*674 FILLER_103_996
*675 FILLER_104_101
*676 FILLER_104_1024
*677 FILLER_104_1028
*678 FILLER_104_1031
*679 FILLER_104_105
*680 FILLER_104_108
*681 FILLER_104_1095
*682 FILLER_104_1099
*683 FILLER_104_1102
*684 FILLER_104_1166
*685 FILLER_104_1170
*686 FILLER_104_1173
*687 FILLER_104_1237
*688 FILLER_104_1241
*689 FILLER_104_1244
*690 FILLER_104_1308
*691 FILLER_104_1312
*692 FILLER_104_1315
*693 FILLER_104_1379
*694 FILLER_104_1383
*695 FILLER_104_1386
*696 FILLER_104_1450
*697 FILLER_104_1454
*698 FILLER_104_1457
*699 FILLER_104_1521
*700 FILLER_104_1525
*701 FILLER_104_1528
*702 FILLER_104_1560
*703 FILLER_104_1576
*704 FILLER_104_1580
*705 FILLER_104_172
*706 FILLER_104_176
*707 FILLER_104_179
*708 FILLER_104_2
*709 FILLER_104_243
*710 FILLER_104_247
*711 FILLER_104_250
*712 FILLER_104_314
*713 FILLER_104_318
*714 FILLER_104_321
*715 FILLER_104_34
*716 FILLER_104_37
*717 FILLER_104_385
*718 FILLER_104_389
*719 FILLER_104_392
*720 FILLER_104_456
*721 FILLER_104_460
*722 FILLER_104_463
*723 FILLER_104_527
*724 FILLER_104_531
*725 FILLER_104_534
*726 FILLER_104_598
*727 FILLER_104_602
*728 FILLER_104_605
*729 FILLER_104_669
*730 FILLER_104_673
*731 FILLER_104_676
*732 FILLER_104_740
*733 FILLER_104_744
*734 FILLER_104_747
*735 FILLER_104_811
*736 FILLER_104_815
*737 FILLER_104_818
*738 FILLER_104_882
*739 FILLER_104_886
*740 FILLER_104_889
*741 FILLER_104_953
*742 FILLER_104_957
*743 FILLER_104_960
*744 FILLER_105_1060
*745 FILLER_105_1064
*746 FILLER_105_1067
*747 FILLER_105_1131
*748 FILLER_105_1135
*749 FILLER_105_1138
*750 FILLER_105_1202
*751 FILLER_105_1206
*752 FILLER_105_1209
*753 FILLER_105_1273
*754 FILLER_105_1277
*755 FILLER_105_1280
*756 FILLER_105_1344
*757 FILLER_105_1348
*758 FILLER_105_1351
*759 FILLER_105_137
*760 FILLER_105_141
*761 FILLER_105_1415
*762 FILLER_105_1419
*763 FILLER_105_1422
*764 FILLER_105_144
*765 FILLER_105_1486
*766 FILLER_105_1490
*767 FILLER_105_1493
*768 FILLER_105_1557
*769 FILLER_105_1561
*770 FILLER_105_1564
*771 FILLER_105_1580
*772 FILLER_105_2
*773 FILLER_105_208
*774 FILLER_105_212
*775 FILLER_105_215
*776 FILLER_105_279
*777 FILLER_105_283
*778 FILLER_105_286
*779 FILLER_105_350
*780 FILLER_105_354
*781 FILLER_105_357
*782 FILLER_105_421
*783 FILLER_105_425
*784 FILLER_105_428
*785 FILLER_105_492
*786 FILLER_105_496
*787 FILLER_105_499
*788 FILLER_105_563
*789 FILLER_105_567
*790 FILLER_105_570
*791 FILLER_105_634
*792 FILLER_105_638
*793 FILLER_105_641
*794 FILLER_105_66
*795 FILLER_105_70
*796 FILLER_105_705
*797 FILLER_105_709
*798 FILLER_105_712
*799 FILLER_105_73
*800 FILLER_105_776
*801 FILLER_105_780
*802 FILLER_105_783
*803 FILLER_105_847
*804 FILLER_105_851
*805 FILLER_105_854
*806 FILLER_105_918
*807 FILLER_105_922
*808 FILLER_105_925
*809 FILLER_105_989
*810 FILLER_105_993
*811 FILLER_105_996
*812 FILLER_106_101
*813 FILLER_106_1024
*814 FILLER_106_1028
*815 FILLER_106_1031
*816 FILLER_106_105
*817 FILLER_106_108
*818 FILLER_106_1095
*819 FILLER_106_1099
*820 FILLER_106_1102
*821 FILLER_106_1166
*822 FILLER_106_1170
*823 FILLER_106_1173
*824 FILLER_106_1237
*825 FILLER_106_1241
*826 FILLER_106_1244
*827 FILLER_106_1308
*828 FILLER_106_1312
*829 FILLER_106_1315
*830 FILLER_106_1379
*831 FILLER_106_1383
*832 FILLER_106_1386
*833 FILLER_106_1450
*834 FILLER_106_1454
*835 FILLER_106_1457
*836 FILLER_106_1521
*837 FILLER_106_1525
*838 FILLER_106_1528
*839 FILLER_106_1560
*840 FILLER_106_1576
*841 FILLER_106_1580
*842 FILLER_106_172
*843 FILLER_106_176
*844 FILLER_106_179
*845 FILLER_106_2
*846 FILLER_106_243
*847 FILLER_106_247
*848 FILLER_106_250
*849 FILLER_106_314
*850 FILLER_106_318
*851 FILLER_106_321
*852 FILLER_106_34
*853 FILLER_106_37
*854 FILLER_106_385
*855 FILLER_106_389
*856 FILLER_106_392
*857 FILLER_106_456
*858 FILLER_106_460
*859 FILLER_106_463
*860 FILLER_106_527
*861 FILLER_106_531
*862 FILLER_106_534
*863 FILLER_106_598
*864 FILLER_106_602
*865 FILLER_106_605
*866 FILLER_106_669
*867 FILLER_106_673
*868 FILLER_106_676
*869 FILLER_106_740
*870 FILLER_106_744
*871 FILLER_106_747
*872 FILLER_106_811
*873 FILLER_106_815
*874 FILLER_106_818
*875 FILLER_106_882
*876 FILLER_106_886
*877 FILLER_106_889
*878 FILLER_106_953
*879 FILLER_106_957
*880 FILLER_106_960
*881 FILLER_107_1060
*882 FILLER_107_1064
*883 FILLER_107_1067
*884 FILLER_107_1131
*885 FILLER_107_1135
*886 FILLER_107_1138
*887 FILLER_107_1202
*888 FILLER_107_1206
*889 FILLER_107_1209
*890 FILLER_107_1273
*891 FILLER_107_1277
*892 FILLER_107_1280
*893 FILLER_107_1344
*894 FILLER_107_1348
*895 FILLER_107_1351
*896 FILLER_107_137
*897 FILLER_107_141
*898 FILLER_107_1415
*899 FILLER_107_1419
*900 FILLER_107_1422
*901 FILLER_107_144
*902 FILLER_107_1486
*903 FILLER_107_1490
*904 FILLER_107_1493
*905 FILLER_107_1557
*906 FILLER_107_1561
*907 FILLER_107_1564
*908 FILLER_107_1580
*909 FILLER_107_2
*910 FILLER_107_208
*911 FILLER_107_212
*912 FILLER_107_215
*913 FILLER_107_279
*914 FILLER_107_283
*915 FILLER_107_286
*916 FILLER_107_350
*917 FILLER_107_354
*918 FILLER_107_357
*919 FILLER_107_421
*920 FILLER_107_425
*921 FILLER_107_428
*922 FILLER_107_492
*923 FILLER_107_496
*924 FILLER_107_499
*925 FILLER_107_563
*926 FILLER_107_567
*927 FILLER_107_570
*928 FILLER_107_634
*929 FILLER_107_638
*930 FILLER_107_641
*931 FILLER_107_66
*932 FILLER_107_70
*933 FILLER_107_705
*934 FILLER_107_709
*935 FILLER_107_712
*936 FILLER_107_73
*937 FILLER_107_776
*938 FILLER_107_780
*939 FILLER_107_783
*940 FILLER_107_847
*941 FILLER_107_851
*942 FILLER_107_854
*943 FILLER_107_918
*944 FILLER_107_922
*945 FILLER_107_925
*946 FILLER_107_989
*947 FILLER_107_993
*948 FILLER_107_996
*949 FILLER_108_101
*950 FILLER_108_1024
*951 FILLER_108_1028
*952 FILLER_108_1031
*953 FILLER_108_105
*954 FILLER_108_108
*955 FILLER_108_1095
*956 FILLER_108_1099
*957 FILLER_108_1102
*958 FILLER_108_1166
*959 FILLER_108_1170
*960 FILLER_108_1173
*961 FILLER_108_1237
*962 FILLER_108_1241
*963 FILLER_108_1244
*964 FILLER_108_1308
*965 FILLER_108_1312
*966 FILLER_108_1315
*967 FILLER_108_1379
*968 FILLER_108_1383
*969 FILLER_108_1386
*970 FILLER_108_1450
*971 FILLER_108_1454
*972 FILLER_108_1457
*973 FILLER_108_1521
*974 FILLER_108_1525
*975 FILLER_108_1528
*976 FILLER_108_1560
*977 FILLER_108_1576
*978 FILLER_108_1580
*979 FILLER_108_172
*980 FILLER_108_176
*981 FILLER_108_179
*982 FILLER_108_2
*983 FILLER_108_243
*984 FILLER_108_247
*985 FILLER_108_250
*986 FILLER_108_314
*987 FILLER_108_318
*988 FILLER_108_321
*989 FILLER_108_34
*990 FILLER_108_37
*991 FILLER_108_385
*992 FILLER_108_389
*993 FILLER_108_392
*994 FILLER_108_456
*995 FILLER_108_460
*996 FILLER_108_463
*997 FILLER_108_527
*998 FILLER_108_531
*999 FILLER_108_534
*1000 FILLER_108_598
*1001 FILLER_108_602
*1002 FILLER_108_605
*1003 FILLER_108_669
*1004 FILLER_108_673
*1005 FILLER_108_676
*1006 FILLER_108_740
*1007 FILLER_108_744
*1008 FILLER_108_747
*1009 FILLER_108_811
*1010 FILLER_108_815
*1011 FILLER_108_818
*1012 FILLER_108_882
*1013 FILLER_108_886
*1014 FILLER_108_889
*1015 FILLER_108_953
*1016 FILLER_108_957
*1017 FILLER_108_960
*1018 FILLER_109_1060
*1019 FILLER_109_1064
*1020 FILLER_109_1067
*1021 FILLER_109_1131
*1022 FILLER_109_1135
*1023 FILLER_109_1138
*1024 FILLER_109_1202
*1025 FILLER_109_1206
*1026 FILLER_109_1209
*1027 FILLER_109_1273
*1028 FILLER_109_1277
*1029 FILLER_109_1280
*1030 FILLER_109_1344
*1031 FILLER_109_1348
*1032 FILLER_109_1351
*1033 FILLER_109_137
*1034 FILLER_109_141
*1035 FILLER_109_1415
*1036 FILLER_109_1419
*1037 FILLER_109_1422
*1038 FILLER_109_144
*1039 FILLER_109_1486
*1040 FILLER_109_1490
*1041 FILLER_109_1493
*1042 FILLER_109_1557
*1043 FILLER_109_1561
*1044 FILLER_109_1564
*1045 FILLER_109_1580
*1046 FILLER_109_2
*1047 FILLER_109_208
*1048 FILLER_109_212
*1049 FILLER_109_215
*1050 FILLER_109_279
*1051 FILLER_109_283
*1052 FILLER_109_286
*1053 FILLER_109_350
*1054 FILLER_109_354
*1055 FILLER_109_357
*1056 FILLER_109_421
*1057 FILLER_109_425
*1058 FILLER_109_428
*1059 FILLER_109_492
*1060 FILLER_109_496
*1061 FILLER_109_499
*1062 FILLER_109_563
*1063 FILLER_109_567
*1064 FILLER_109_570
*1065 FILLER_109_634
*1066 FILLER_109_638
*1067 FILLER_109_641
*1068 FILLER_109_66
*1069 FILLER_109_70
*1070 FILLER_109_705
*1071 FILLER_109_709
*1072 FILLER_109_712
*1073 FILLER_109_73
*1074 FILLER_109_776
*1075 FILLER_109_780
*1076 FILLER_109_783
*1077 FILLER_109_847
*1078 FILLER_109_851
*1079 FILLER_109_854
*1080 FILLER_109_918
*1081 FILLER_109_922
*1082 FILLER_109_925
*1083 FILLER_109_989
*1084 FILLER_109_993
*1085 FILLER_109_996
*1086 FILLER_10_101
*1087 FILLER_10_1024
*1088 FILLER_10_1028
*1089 FILLER_10_1031
*1090 FILLER_10_105
*1091 FILLER_10_108
*1092 FILLER_10_1095
*1093 FILLER_10_1099
*1094 FILLER_10_1102
*1095 FILLER_10_1166
*1096 FILLER_10_1170
*1097 FILLER_10_1173
*1098 FILLER_10_1237
*1099 FILLER_10_1241
*1100 FILLER_10_1244
*1101 FILLER_10_1308
*1102 FILLER_10_1312
*1103 FILLER_10_1315
*1104 FILLER_10_1379
*1105 FILLER_10_1383
*1106 FILLER_10_1386
*1107 FILLER_10_1450
*1108 FILLER_10_1454
*1109 FILLER_10_1457
*1110 FILLER_10_1521
*1111 FILLER_10_1525
*1112 FILLER_10_1528
*1113 FILLER_10_1560
*1114 FILLER_10_1576
*1115 FILLER_10_1580
*1116 FILLER_10_172
*1117 FILLER_10_176
*1118 FILLER_10_179
*1119 FILLER_10_2
*1120 FILLER_10_243
*1121 FILLER_10_247
*1122 FILLER_10_250
*1123 FILLER_10_314
*1124 FILLER_10_318
*1125 FILLER_10_321
*1126 FILLER_10_34
*1127 FILLER_10_37
*1128 FILLER_10_385
*1129 FILLER_10_389
*1130 FILLER_10_392
*1131 FILLER_10_456
*1132 FILLER_10_460
*1133 FILLER_10_463
*1134 FILLER_10_527
*1135 FILLER_10_531
*1136 FILLER_10_534
*1137 FILLER_10_598
*1138 FILLER_10_602
*1139 FILLER_10_605
*1140 FILLER_10_669
*1141 FILLER_10_673
*1142 FILLER_10_676
*1143 FILLER_10_740
*1144 FILLER_10_744
*1145 FILLER_10_747
*1146 FILLER_10_811
*1147 FILLER_10_815
*1148 FILLER_10_818
*1149 FILLER_10_882
*1150 FILLER_10_886
*1151 FILLER_10_889
*1152 FILLER_10_953
*1153 FILLER_10_957
*1154 FILLER_10_960
*1155 FILLER_110_101
*1156 FILLER_110_1024
*1157 FILLER_110_1028
*1158 FILLER_110_1031
*1159 FILLER_110_105
*1160 FILLER_110_108
*1161 FILLER_110_1095
*1162 FILLER_110_1099
*1163 FILLER_110_1102
*1164 FILLER_110_1166
*1165 FILLER_110_1170
*1166 FILLER_110_1173
*1167 FILLER_110_1237
*1168 FILLER_110_1241
*1169 FILLER_110_1244
*1170 FILLER_110_1308
*1171 FILLER_110_1312
*1172 FILLER_110_1315
*1173 FILLER_110_1379
*1174 FILLER_110_1383
*1175 FILLER_110_1386
*1176 FILLER_110_1450
*1177 FILLER_110_1454
*1178 FILLER_110_1457
*1179 FILLER_110_1521
*1180 FILLER_110_1525
*1181 FILLER_110_1528
*1182 FILLER_110_1560
*1183 FILLER_110_1576
*1184 FILLER_110_1580
*1185 FILLER_110_172
*1186 FILLER_110_176
*1187 FILLER_110_179
*1188 FILLER_110_2
*1189 FILLER_110_243
*1190 FILLER_110_247
*1191 FILLER_110_250
*1192 FILLER_110_314
*1193 FILLER_110_318
*1194 FILLER_110_321
*1195 FILLER_110_34
*1196 FILLER_110_37
*1197 FILLER_110_385
*1198 FILLER_110_389
*1199 FILLER_110_392
*1200 FILLER_110_456
*1201 FILLER_110_460
*1202 FILLER_110_463
*1203 FILLER_110_527
*1204 FILLER_110_531
*1205 FILLER_110_534
*1206 FILLER_110_598
*1207 FILLER_110_602
*1208 FILLER_110_605
*1209 FILLER_110_669
*1210 FILLER_110_673
*1211 FILLER_110_676
*1212 FILLER_110_740
*1213 FILLER_110_744
*1214 FILLER_110_747
*1215 FILLER_110_811
*1216 FILLER_110_815
*1217 FILLER_110_818
*1218 FILLER_110_882
*1219 FILLER_110_886
*1220 FILLER_110_889
*1221 FILLER_110_953
*1222 FILLER_110_957
*1223 FILLER_110_960
*1224 FILLER_111_1060
*1225 FILLER_111_1064
*1226 FILLER_111_1067
*1227 FILLER_111_1131
*1228 FILLER_111_1135
*1229 FILLER_111_1138
*1230 FILLER_111_1202
*1231 FILLER_111_1206
*1232 FILLER_111_1209
*1233 FILLER_111_1273
*1234 FILLER_111_1277
*1235 FILLER_111_1280
*1236 FILLER_111_1344
*1237 FILLER_111_1348
*1238 FILLER_111_1351
*1239 FILLER_111_137
*1240 FILLER_111_141
*1241 FILLER_111_1415
*1242 FILLER_111_1419
*1243 FILLER_111_1422
*1244 FILLER_111_144
*1245 FILLER_111_1486
*1246 FILLER_111_1490
*1247 FILLER_111_1493
*1248 FILLER_111_1557
*1249 FILLER_111_1561
*1250 FILLER_111_1564
*1251 FILLER_111_1580
*1252 FILLER_111_2
*1253 FILLER_111_208
*1254 FILLER_111_212
*1255 FILLER_111_215
*1256 FILLER_111_279
*1257 FILLER_111_283
*1258 FILLER_111_286
*1259 FILLER_111_350
*1260 FILLER_111_354
*1261 FILLER_111_357
*1262 FILLER_111_421
*1263 FILLER_111_425
*1264 FILLER_111_428
*1265 FILLER_111_492
*1266 FILLER_111_496
*1267 FILLER_111_499
*1268 FILLER_111_563
*1269 FILLER_111_567
*1270 FILLER_111_570
*1271 FILLER_111_634
*1272 FILLER_111_638
*1273 FILLER_111_641
*1274 FILLER_111_66
*1275 FILLER_111_70
*1276 FILLER_111_705
*1277 FILLER_111_709
*1278 FILLER_111_712
*1279 FILLER_111_73
*1280 FILLER_111_776
*1281 FILLER_111_780
*1282 FILLER_111_783
*1283 FILLER_111_847
*1284 FILLER_111_851
*1285 FILLER_111_854
*1286 FILLER_111_918
*1287 FILLER_111_922
*1288 FILLER_111_925
*1289 FILLER_111_989
*1290 FILLER_111_993
*1291 FILLER_111_996
*1292 FILLER_112_101
*1293 FILLER_112_1024
*1294 FILLER_112_1028
*1295 FILLER_112_1031
*1296 FILLER_112_105
*1297 FILLER_112_108
*1298 FILLER_112_1095
*1299 FILLER_112_1099
*1300 FILLER_112_1102
*1301 FILLER_112_1166
*1302 FILLER_112_1170
*1303 FILLER_112_1173
*1304 FILLER_112_1237
*1305 FILLER_112_1241
*1306 FILLER_112_1244
*1307 FILLER_112_1308
*1308 FILLER_112_1312
*1309 FILLER_112_1315
*1310 FILLER_112_1379
*1311 FILLER_112_1383
*1312 FILLER_112_1386
*1313 FILLER_112_1450
*1314 FILLER_112_1454
*1315 FILLER_112_1457
*1316 FILLER_112_1521
*1317 FILLER_112_1525
*1318 FILLER_112_1528
*1319 FILLER_112_1560
*1320 FILLER_112_1576
*1321 FILLER_112_1580
*1322 FILLER_112_172
*1323 FILLER_112_176
*1324 FILLER_112_179
*1325 FILLER_112_2
*1326 FILLER_112_243
*1327 FILLER_112_247
*1328 FILLER_112_250
*1329 FILLER_112_314
*1330 FILLER_112_318
*1331 FILLER_112_321
*1332 FILLER_112_34
*1333 FILLER_112_37
*1334 FILLER_112_385
*1335 FILLER_112_389
*1336 FILLER_112_392
*1337 FILLER_112_456
*1338 FILLER_112_460
*1339 FILLER_112_463
*1340 FILLER_112_527
*1341 FILLER_112_531
*1342 FILLER_112_534
*1343 FILLER_112_598
*1344 FILLER_112_602
*1345 FILLER_112_605
*1346 FILLER_112_669
*1347 FILLER_112_673
*1348 FILLER_112_676
*1349 FILLER_112_740
*1350 FILLER_112_744
*1351 FILLER_112_747
*1352 FILLER_112_811
*1353 FILLER_112_815
*1354 FILLER_112_818
*1355 FILLER_112_882
*1356 FILLER_112_886
*1357 FILLER_112_889
*1358 FILLER_112_953
*1359 FILLER_112_957
*1360 FILLER_112_960
*1361 FILLER_113_1060
*1362 FILLER_113_1064
*1363 FILLER_113_1067
*1364 FILLER_113_1131
*1365 FILLER_113_1135
*1366 FILLER_113_1138
*1367 FILLER_113_1202
*1368 FILLER_113_1206
*1369 FILLER_113_1209
*1370 FILLER_113_1273
*1371 FILLER_113_1277
*1372 FILLER_113_1280
*1373 FILLER_113_1344
*1374 FILLER_113_1348
*1375 FILLER_113_1351
*1376 FILLER_113_137
*1377 FILLER_113_141
*1378 FILLER_113_1415
*1379 FILLER_113_1419
*1380 FILLER_113_1422
*1381 FILLER_113_144
*1382 FILLER_113_1486
*1383 FILLER_113_1490
*1384 FILLER_113_1493
*1385 FILLER_113_1557
*1386 FILLER_113_1561
*1387 FILLER_113_1564
*1388 FILLER_113_1580
*1389 FILLER_113_2
*1390 FILLER_113_208
*1391 FILLER_113_212
*1392 FILLER_113_215
*1393 FILLER_113_279
*1394 FILLER_113_283
*1395 FILLER_113_286
*1396 FILLER_113_350
*1397 FILLER_113_354
*1398 FILLER_113_357
*1399 FILLER_113_421
*1400 FILLER_113_425
*1401 FILLER_113_428
*1402 FILLER_113_492
*1403 FILLER_113_496
*1404 FILLER_113_499
*1405 FILLER_113_563
*1406 FILLER_113_567
*1407 FILLER_113_570
*1408 FILLER_113_634
*1409 FILLER_113_638
*1410 FILLER_113_641
*1411 FILLER_113_66
*1412 FILLER_113_70
*1413 FILLER_113_705
*1414 FILLER_113_709
*1415 FILLER_113_712
*1416 FILLER_113_73
*1417 FILLER_113_776
*1418 FILLER_113_780
*1419 FILLER_113_783
*1420 FILLER_113_847
*1421 FILLER_113_851
*1422 FILLER_113_854
*1423 FILLER_113_918
*1424 FILLER_113_922
*1425 FILLER_113_925
*1426 FILLER_113_989
*1427 FILLER_113_993
*1428 FILLER_113_996
*1429 FILLER_114_101
*1430 FILLER_114_1024
*1431 FILLER_114_1028
*1432 FILLER_114_1031
*1433 FILLER_114_105
*1434 FILLER_114_108
*1435 FILLER_114_1095
*1436 FILLER_114_1099
*1437 FILLER_114_1102
*1438 FILLER_114_1166
*1439 FILLER_114_1170
*1440 FILLER_114_1173
*1441 FILLER_114_1237
*1442 FILLER_114_1241
*1443 FILLER_114_1244
*1444 FILLER_114_1308
*1445 FILLER_114_1312
*1446 FILLER_114_1315
*1447 FILLER_114_1379
*1448 FILLER_114_1383
*1449 FILLER_114_1386
*1450 FILLER_114_1450
*1451 FILLER_114_1454
*1452 FILLER_114_1457
*1453 FILLER_114_1521
*1454 FILLER_114_1525
*1455 FILLER_114_1528
*1456 FILLER_114_1560
*1457 FILLER_114_1576
*1458 FILLER_114_1580
*1459 FILLER_114_172
*1460 FILLER_114_176
*1461 FILLER_114_179
*1462 FILLER_114_2
*1463 FILLER_114_243
*1464 FILLER_114_247
*1465 FILLER_114_250
*1466 FILLER_114_314
*1467 FILLER_114_318
*1468 FILLER_114_321
*1469 FILLER_114_34
*1470 FILLER_114_37
*1471 FILLER_114_385
*1472 FILLER_114_389
*1473 FILLER_114_392
*1474 FILLER_114_456
*1475 FILLER_114_460
*1476 FILLER_114_463
*1477 FILLER_114_527
*1478 FILLER_114_531
*1479 FILLER_114_534
*1480 FILLER_114_598
*1481 FILLER_114_602
*1482 FILLER_114_605
*1483 FILLER_114_669
*1484 FILLER_114_673
*1485 FILLER_114_676
*1486 FILLER_114_740
*1487 FILLER_114_744
*1488 FILLER_114_747
*1489 FILLER_114_811
*1490 FILLER_114_815
*1491 FILLER_114_818
*1492 FILLER_114_882
*1493 FILLER_114_886
*1494 FILLER_114_889
*1495 FILLER_114_953
*1496 FILLER_114_957
*1497 FILLER_114_960
*1498 FILLER_115_1060
*1499 FILLER_115_1064
*1500 FILLER_115_1067
*1501 FILLER_115_1131
*1502 FILLER_115_1135
*1503 FILLER_115_1138
*1504 FILLER_115_1202
*1505 FILLER_115_1206
*1506 FILLER_115_1209
*1507 FILLER_115_1273
*1508 FILLER_115_1277
*1509 FILLER_115_1280
*1510 FILLER_115_1344
*1511 FILLER_115_1348
*1512 FILLER_115_1351
*1513 FILLER_115_137
*1514 FILLER_115_141
*1515 FILLER_115_1415
*1516 FILLER_115_1419
*1517 FILLER_115_1422
*1518 FILLER_115_144
*1519 FILLER_115_1486